/*---------------------------------------------------------------------------*\
| =========                 |                                                 |
| \\      /  F ield         | OpenFOAM: The Open Source CFD Toolbox           |
|  \\    /   O peration     | Version:  v2012                                 |
|   \\  /    A nd           | Website:  www.openfoam.com                      |
|    \\/     M anipulation  |                                                 |
\*---------------------------------------------------------------------------*/
Build  : _7bdb509494-20201222 OPENFOAM=2012
Arch   : "LSB;label=32;scalar=64"
Exec   : interTwoPhaseCentralFoam
Date   : Jan 14 2022
Time   : 09:50:34
Host   : Jarvis
PID    : 2150
I/O    : uncollated
Case   : /mnt/d/GitHub/hybridCentralSolvers/Tutorials/interTwoPhase_for_the_article/Gas_5000
nProcs : 1
trapFpe: Floating point exception trapping enabled (FOAM_SIGFPE).
fileModificationChecking : Monitoring run-time modified files using timeStampMaster (fileModificationSkew 5, maxFileModificationPolls 20)
allowSystemOperations : Allowing user-supplied system call operations

// * * * * * * * * * * * * * * * * * * * * * * * * * * * * * * * * * * * * * //
Create time

Create mesh for time = 0


PIMPLE: no residual control data found. Calculations will employ 3 corrector loops

Selecting surfaceTensionModel constant

Constructor is working


Starting time loop


Reading g

Reading hRef
Calculating field g.h

 C1 5.213911901 C2 1.18382567
Courant Number mean: 0 max: 0
deltaT = 1.19999976e-07
Time = 1.2e-07

diagonal:  Solving for rho1, Initial residual = 0, Final residual = 0, No Iterations 0
diagonal:  Solving for rho2, Initial residual = 0, Final residual = 0, No Iterations 0
PIMPLE: iteration 1
MULES: Solving for volumeFraction1
Phase-1 volume fraction = 0  Min(volumeFraction1) = 0  Max(volumeFraction1) = 0
 max: rho1 1033.041348 min: 1033.005168
 max: rho2 0.9989740407 min: 0.124871764
DILUPBiCGStab:  Solving for T, Initial residual = 1.703119173e-16, Final residual = 1.703119173e-16, No Iterations 0
 C1 5.213911901 C2 1.18382567
DILUPBiCGStab:  Solving for p_rgh, Initial residual = 3.243325928e-10, Final residual = 3.243325928e-10, No Iterations 0
max/min kappa: 0/0
GAMGPCG:  Solving for pcorr, Initial residual = 1, Final residual = 5.042081079e-21, No Iterations 2
PIMPLE: iteration 2
MULES: Solving for volumeFraction1
Phase-1 volume fraction = 0  Min(volumeFraction1) = 0  Max(volumeFraction1) = 0
 max: rho1 1033.041348 min: 1033.005168
 max: rho2 0.9989740407 min: 0.124871764
DILUPBiCGStab:  Solving for T, Initial residual = 1.621665458e-10, Final residual = 1.621665458e-10, No Iterations 0
 C1 5.213911901 C2 1.18382567
DILUPBiCGStab:  Solving for p_rgh, Initial residual = 3.243310546e-10, Final residual = 3.243310546e-10, No Iterations 0
max/min kappa: 1/0
GAMGPCG:  Solving for pcorr, Initial residual = 1, Final residual = 2.083311211e-19, No Iterations 2
PIMPLE: iteration 3
MULES: Solving for volumeFraction1
Phase-1 volume fraction = 0  Min(volumeFraction1) = 0  Max(volumeFraction1) = 0
 max: rho1 1033.041348 min: 1033.005168
 max: rho2 0.9989740407 min: 0.124871764
DILUPBiCGStab:  Solving for T, Initial residual = 1.620895563e-10, Final residual = 1.620895563e-10, No Iterations 0
 C1 5.213911901 C2 1.18382567
DILUPBiCGStab:  Solving for p_rgh, Initial residual = 1.228951806e-07, Final residual = 1.31723511e-23, No Iterations 1
max/min kappa: 1/0
GAMGPCG:  Solving for pcorr, Initial residual = 1, Final residual = 1.525790909e-20, No Iterations 2
ExecutionTime = 0.34 s  ClockTime = 0 s

Courant Number mean: 2.211769935e-07 max: 0.0005529333203
deltaT = 1.440000058e-07
Time = 2.64e-07

diagonal:  Solving for rho1, Initial residual = 0, Final residual = 0, No Iterations 0
diagonal:  Solving for rho2, Initial residual = 0, Final residual = 0, No Iterations 0
PIMPLE: iteration 1
MULES: Solving for volumeFraction1
Phase-1 volume fraction = 0  Min(volumeFraction1) = 0  Max(volumeFraction1) = 0
 max: rho1 1033.041348 min: 1033.005168
 max: rho2 0.9989740407 min: 0.124871764
DILUPBiCGStab:  Solving for T, Initial residual = 5.113698259e-07, Final residual = 3.983532514e-23, No Iterations 1
 C1 5.213911901 C2 1.18382567
DILUPBiCGStab:  Solving for p_rgh, Initial residual = 2.124903329e-07, Final residual = 3.859845882e-27, No Iterations 1
max/min kappa: 1/0
GAMGPCG:  Solving for pcorr, Initial residual = 1, Final residual = 1.84263908e-18, No Iterations 2
PIMPLE: iteration 2
MULES: Solving for volumeFraction1
Phase-1 volume fraction = 0  Min(volumeFraction1) = 0  Max(volumeFraction1) = 0
 max: rho1 1033.041348 min: 1033.005168
 max: rho2 0.9989740407 min: 0.124871764
DILUPBiCGStab:  Solving for T, Initial residual = 1.452751274e-07, Final residual = 9.976785553e-24, No Iterations 1
 C1 5.213911901 C2 1.18382567
DILUPBiCGStab:  Solving for p_rgh, Initial residual = 1.841766914e-08, Final residual = 9.898089205e-25, No Iterations 1
max/min kappa: 1/0
GAMGPCG:  Solving for pcorr, Initial residual = 1, Final residual = 5.122493796e-19, No Iterations 2
PIMPLE: iteration 3
MULES: Solving for volumeFraction1
Phase-1 volume fraction = 0  Min(volumeFraction1) = 0  Max(volumeFraction1) = 0
 max: rho1 1033.041348 min: 1033.005168
 max: rho2 0.9989740407 min: 0.124871764
DILUPBiCGStab:  Solving for T, Initial residual = 4.121113795e-08, Final residual = 2.496633955e-24, No Iterations 1
 C1 5.213911901 C2 1.18382567
DILUPBiCGStab:  Solving for p_rgh, Initial residual = 5.241962941e-09, Final residual = 1.929923253e-27, No Iterations 1
max/min kappa: 1/0
GAMGPCG:  Solving for pcorr, Initial residual = 1, Final residual = 9.096525077e-19, No Iterations 2
ExecutionTime = 0.48 s  ClockTime = 1 s

Courant Number mean: 2.656839404e-07 max: 0.0006640674154
deltaT = 1.72799982e-07
Time = 4.368e-07

diagonal:  Solving for rho1, Initial residual = 0, Final residual = 0, No Iterations 0
diagonal:  Solving for rho2, Initial residual = 0, Final residual = 0, No Iterations 0
PIMPLE: iteration 1
MULES: Solving for volumeFraction1
Phase-1 volume fraction = 0  Min(volumeFraction1) = 0  Max(volumeFraction1) = 0
 max: rho1 1033.041348 min: 1033.005168
 max: rho2 0.9989740407 min: 0.124871764
DILUPBiCGStab:  Solving for T, Initial residual = 8.494568452e-07, Final residual = 9.337872556e-26, No Iterations 1
 C1 5.213911901 C2 1.18382567
DILUPBiCGStab:  Solving for p_rgh, Initial residual = 2.846192434e-07, Final residual = 1.358424105e-29, No Iterations 1
max/min kappa: 1/0
GAMGPCG:  Solving for pcorr, Initial residual = 1, Final residual = 1.33089306e-18, No Iterations 2
PIMPLE: iteration 2
MULES: Solving for volumeFraction1
Phase-1 volume fraction = 0  Min(volumeFraction1) = 0  Max(volumeFraction1) = 0
 max: rho1 1033.041348 min: 1033.005168
 max: rho2 0.9989740407 min: 0.124871764
DILUPBiCGStab:  Solving for T, Initial residual = 2.818570605e-09, Final residual = 6.184816942e-25, No Iterations 1
 C1 5.213911901 C2 1.18382567
DILUPBiCGStab:  Solving for p_rgh, Initial residual = 2.084896533e-10, Final residual = 2.084896533e-10, No Iterations 0
max/min kappa: 1/0
GAMGPCG:  Solving for pcorr, Initial residual = 1, Final residual = 4.963324944e-19, No Iterations 2
PIMPLE: iteration 3
MULES: Solving for volumeFraction1
Phase-1 volume fraction = 0  Min(volumeFraction1) = 0  Max(volumeFraction1) = 0
 max: rho1 1033.041348 min: 1033.005168
 max: rho2 0.9989740407 min: 0.124871764
DILUPBiCGStab:  Solving for T, Initial residual = 1.286929628e-10, Final residual = 1.286929628e-10, No Iterations 0
 C1 5.213911901 C2 1.18382567
DILUPBiCGStab:  Solving for p_rgh, Initial residual = 2.084890881e-10, Final residual = 2.084890881e-10, No Iterations 0
max/min kappa: 1/0
GAMGPCG:  Solving for pcorr, Initial residual = 1, Final residual = 4.537172771e-19, No Iterations 2
ExecutionTime = 0.59 s  ClockTime = 1 s

Courant Number mean: 5.165409151e-06 max: 0.0007931537867
deltaT = 2.073600143e-07
Time = 6.4416e-07

diagonal:  Solving for rho1, Initial residual = 0, Final residual = 0, No Iterations 0
diagonal:  Solving for rho2, Initial residual = 0, Final residual = 0, No Iterations 0
PIMPLE: iteration 1
MULES: Solving for volumeFraction1
Phase-1 volume fraction = 0  Min(volumeFraction1) = 0  Max(volumeFraction1) = 0
 max: rho1 1033.041348 min: 1033.005168
 max: rho2 0.9989740407 min: 0.124871764
DILUPBiCGStab:  Solving for T, Initial residual = 1.019760476e-06, Final residual = 5.757869242e-23, No Iterations 1
 C1 5.213911901 C2 1.18382567
DILUPBiCGStab:  Solving for p_rgh, Initial residual = 3.411238916e-07, Final residual = 2.278307826e-23, No Iterations 1
max/min kappa: 1/0
GAMGPCG:  Solving for pcorr, Initial residual = 1, Final residual = 6.257033093e-21, No Iterations 2
PIMPLE: iteration 2
MULES: Solving for volumeFraction1
Phase-1 volume fraction = 0  Min(volumeFraction1) = 0  Max(volumeFraction1) = 0
 max: rho1 1033.041348 min: 1033.005168
 max: rho2 0.9989740407 min: 0.124871764
DILUPBiCGStab:  Solving for T, Initial residual = 2.013546452e-09, Final residual = 2.241247523e-25, No Iterations 1
 C1 5.213911901 C2 1.18382567
DILUPBiCGStab:  Solving for p_rgh, Initial residual = 4.596544254e-10, Final residual = 4.596544254e-10, No Iterations 0
max/min kappa: 1/0
GAMGPCG:  Solving for pcorr, Initial residual = 1, Final residual = 1.137767467e-18, No Iterations 2
PIMPLE: iteration 3
MULES: Solving for volumeFraction1
Phase-1 volume fraction = 0  Min(volumeFraction1) = 0  Max(volumeFraction1) = 0
 max: rho1 1033.041348 min: 1033.005168
 max: rho2 0.9989740407 min: 0.124871764
DILUPBiCGStab:  Solving for T, Initial residual = 1.845063346e-10, Final residual = 1.845063346e-10, No Iterations 0
 C1 5.213911901 C2 1.18382567
DILUPBiCGStab:  Solving for p_rgh, Initial residual = 4.919621646e-10, Final residual = 4.919621646e-10, No Iterations 0
max/min kappa: 1/0
GAMGPCG:  Solving for pcorr, Initial residual = 1, Final residual = 1.57687238e-18, No Iterations 2
ExecutionTime = 0.72 s  ClockTime = 1 s

Courant Number mean: 9.370258476e-06 max: 0.0009706067421
deltaT = 2.488318623e-07
Time = 8.92992e-07

diagonal:  Solving for rho1, Initial residual = 0, Final residual = 0, No Iterations 0
diagonal:  Solving for rho2, Initial residual = 0, Final residual = 0, No Iterations 0
PIMPLE: iteration 1
MULES: Solving for volumeFraction1
Phase-1 volume fraction = 0  Min(volumeFraction1) = 0  Max(volumeFraction1) = 0
 max: rho1 1033.041348 min: 1033.005168
 max: rho2 0.9989740407 min: 0.124871764
DILUPBiCGStab:  Solving for T, Initial residual = 1.218112283e-06, Final residual = 1.377863847e-22, No Iterations 1
 C1 5.213911901 C2 1.18382567
DILUPBiCGStab:  Solving for p_rgh, Initial residual = 4.07976281e-07, Final residual = 5.46792774e-23, No Iterations 1
max/min kappa: 1/0
GAMGPCG:  Solving for pcorr, Initial residual = 1, Final residual = 9.97796268e-20, No Iterations 2
PIMPLE: iteration 2
MULES: Solving for volumeFraction1
Phase-1 volume fraction = 0  Min(volumeFraction1) = 0  Max(volumeFraction1) = 0
 max: rho1 1033.041348 min: 1033.005168
 max: rho2 0.9989740407 min: 0.124871764
DILUPBiCGStab:  Solving for T, Initial residual = 4.757244294e-09, Final residual = 6.05181753e-25, No Iterations 1
 C1 5.213911901 C2 1.18382567
DILUPBiCGStab:  Solving for p_rgh, Initial residual = 8.874228807e-10, Final residual = 8.874228807e-10, No Iterations 0
max/min kappa: 1/0
GAMGPCG:  Solving for pcorr, Initial residual = 1, Final residual = 9.399025594e-20, No Iterations 2
PIMPLE: iteration 3
MULES: Solving for volumeFraction1
Phase-1 volume fraction = 0  Min(volumeFraction1) = 0  Max(volumeFraction1) = 0
 max: rho1 1033.041348 min: 1033.005168
 max: rho2 0.9989740407 min: 0.124871764
DILUPBiCGStab:  Solving for T, Initial residual = 2.628419821e-10, Final residual = 2.628419821e-10, No Iterations 0
 C1 5.213911901 C2 1.18382567
DILUPBiCGStab:  Solving for p_rgh, Initial residual = 9.410450406e-10, Final residual = 9.410450406e-10, No Iterations 0
max/min kappa: 1/0
GAMGPCG:  Solving for pcorr, Initial residual = 1, Final residual = 1.225096367e-19, No Iterations 2
ExecutionTime = 0.83 s  ClockTime = 1 s

Courant Number mean: 1.854979748e-05 max: 0.001178594042
deltaT = 2.985983834e-07
Time = 1.19159e-06

diagonal:  Solving for rho1, Initial residual = 0, Final residual = 0, No Iterations 0
diagonal:  Solving for rho2, Initial residual = 0, Final residual = 0, No Iterations 0
PIMPLE: iteration 1
MULES: Solving for volumeFraction1
Phase-1 volume fraction = 0  Min(volumeFraction1) = 0  Max(volumeFraction1) = 0
 max: rho1 1033.041348 min: 1033.005168
 max: rho2 0.9989740407 min: 0.124871764
DILUPBiCGStab:  Solving for T, Initial residual = 1.451657178e-06, Final residual = 1.614697191e-25, No Iterations 1
 C1 5.213911901 C2 1.18382567
DILUPBiCGStab:  Solving for p_rgh, Initial residual = 4.873737008e-07, Final residual = 6.574355867e-23, No Iterations 1
max/min kappa: 1/0
GAMGPCG:  Solving for pcorr, Initial residual = 1, Final residual = 1.404031565e-20, No Iterations 2
PIMPLE: iteration 2
MULES: Solving for volumeFraction1
Phase-1 volume fraction = 0  Min(volumeFraction1) = 0  Max(volumeFraction1) = 0
 max: rho1 1033.041348 min: 1033.005168
 max: rho2 0.9989740407 min: 0.124871764
DILUPBiCGStab:  Solving for T, Initial residual = 7.467879203e-09, Final residual = 8.097194816e-26, No Iterations 1
 C1 5.213911901 C2 1.18382567
DILUPBiCGStab:  Solving for p_rgh, Initial residual = 1.340837456e-09, Final residual = 3.126464093e-29, No Iterations 1
max/min kappa: 1/0
GAMGPCG:  Solving for pcorr, Initial residual = 1, Final residual = 3.557716389e-20, No Iterations 2
PIMPLE: iteration 3
MULES: Solving for volumeFraction1
Phase-1 volume fraction = 0  Min(volumeFraction1) = 0  Max(volumeFraction1) = 0
 max: rho1 1033.041348 min: 1033.005168
 max: rho2 0.9989740407 min: 0.124871764
DILUPBiCGStab:  Solving for T, Initial residual = 3.051184404e-09, Final residual = 2.824163003e-25, No Iterations 1
 C1 5.213911901 C2 1.18382567
DILUPBiCGStab:  Solving for p_rgh, Initial residual = 4.764929649e-10, Final residual = 4.764929649e-10, No Iterations 0
max/min kappa: 1/0
GAMGPCG:  Solving for pcorr, Initial residual = 1, Final residual = 2.028431471e-19, No Iterations 2
ExecutionTime = 0.94 s  ClockTime = 1 s

Courant Number mean: 9.372283848e-06 max: 0.001395969249
deltaT = 3.583180601e-07
Time = 1.54991e-06

diagonal:  Solving for rho1, Initial residual = 0, Final residual = 0, No Iterations 0
diagonal:  Solving for rho2, Initial residual = 0, Final residual = 0, No Iterations 0
PIMPLE: iteration 1
MULES: Solving for volumeFraction1
Phase-1 volume fraction = 0  Min(volumeFraction1) = 0  Max(volumeFraction1) = 0
 max: rho1 1033.041348 min: 1033.005168
 max: rho2 0.9989740407 min: 0.124871764
DILUPBiCGStab:  Solving for T, Initial residual = 1.72392593e-06, Final residual = 2.00158009e-22, No Iterations 1
 C1 5.213911901 C2 1.18382567
DILUPBiCGStab:  Solving for p_rgh, Initial residual = 5.812986081e-07, Final residual = 3.963840994e-23, No Iterations 1
max/min kappa: 1/0
GAMGPCG:  Solving for pcorr, Initial residual = 1, Final residual = 2.446007253e-20, No Iterations 2
PIMPLE: iteration 2
MULES: Solving for volumeFraction1
Phase-1 volume fraction = 0  Min(volumeFraction1) = 0  Max(volumeFraction1) = 0
 max: rho1 1033.041348 min: 1033.005168
 max: rho2 0.9989740407 min: 0.124871764
DILUPBiCGStab:  Solving for T, Initial residual = 8.315163587e-09, Final residual = 7.750669929e-25, No Iterations 1
 C1 5.213911901 C2 1.18382567
DILUPBiCGStab:  Solving for p_rgh, Initial residual = 1.599323169e-09, Final residual = 4.895018598e-27, No Iterations 1
max/min kappa: 1/0
GAMGPCG:  Solving for pcorr, Initial residual = 1, Final residual = 4.256907012e-19, No Iterations 2
PIMPLE: iteration 3
MULES: Solving for volumeFraction1
Phase-1 volume fraction = 0  Min(volumeFraction1) = 0  Max(volumeFraction1) = 0
 max: rho1 1033.041348 min: 1033.005168
 max: rho2 0.9989740407 min: 0.124871764
DILUPBiCGStab:  Solving for T, Initial residual = 3.674207857e-09, Final residual = 6.777582773e-25, No Iterations 1
 C1 5.213911901 C2 1.18382567
DILUPBiCGStab:  Solving for p_rgh, Initial residual = 6.031988059e-10, Final residual = 6.031988059e-10, No Iterations 0
max/min kappa: 1/0
GAMGPCG:  Solving for pcorr, Initial residual = 1, Final residual = 1.083753985e-18, No Iterations 2
ExecutionTime = 1.06 s  ClockTime = 1 s

Courant Number mean: 1.133441447e-05 max: 0.001680305115
deltaT = 4.299812099e-07
Time = 1.97989e-06

diagonal:  Solving for rho1, Initial residual = 0, Final residual = 0, No Iterations 0
diagonal:  Solving for rho2, Initial residual = 0, Final residual = 0, No Iterations 0
PIMPLE: iteration 1
MULES: Solving for volumeFraction1
Phase-1 volume fraction = 0  Min(volumeFraction1) = 0  Max(volumeFraction1) = 0
 max: rho1 1033.041348 min: 1033.000183
 max: rho2 0.9989740407 min: 0.124871764
DILUPBiCGStab:  Solving for T, Initial residual = 2.046225082e-06, Final residual = 4.654957453e-25, No Iterations 1
 C1 5.213911901 C2 1.18382567
DILUPBiCGStab:  Solving for p_rgh, Initial residual = 6.929830965e-07, Final residual = 4.811996489e-23, No Iterations 1
max/min kappa: 1/0
GAMGPCG:  Solving for pcorr, Initial residual = 1, Final residual = 1.177131926e-19, No Iterations 2
PIMPLE: iteration 2
MULES: Solving for volumeFraction1
Phase-1 volume fraction = 0  Min(volumeFraction1) = 0  Max(volumeFraction1) = 0
 max: rho1 1033.041348 min: 1033.005168
 max: rho2 0.9989740407 min: 0.124871764
DILUPBiCGStab:  Solving for T, Initial residual = 1.165561516e-08, Final residual = 4.537058412e-28, No Iterations 1
 C1 5.213911901 C2 1.18382567
DILUPBiCGStab:  Solving for p_rgh, Initial residual = 2.233735777e-09, Final residual = 4.89851496e-25, No Iterations 1
max/min kappa: 1/0
GAMGPCG:  Solving for pcorr, Initial residual = 1, Final residual = 5.875631236e-10, No Iterations 1
PIMPLE: iteration 3
MULES: Solving for volumeFraction1
Phase-1 volume fraction = 0  Min(volumeFraction1) = 0  Max(volumeFraction1) = 0
 max: rho1 1033.041348 min: 1033.005168
 max: rho2 0.9989740407 min: 0.124871764
DILUPBiCGStab:  Solving for T, Initial residual = 5.163922691e-09, Final residual = 1.031492699e-24, No Iterations 1
 C1 5.213911901 C2 1.18382567
DILUPBiCGStab:  Solving for p_rgh, Initial residual = 8.614509374e-10, Final residual = 8.614509374e-10, No Iterations 0
max/min kappa: 1/0
GAMGPCG:  Solving for pcorr, Initial residual = 1, Final residual = 9.658020051e-19, No Iterations 2
ExecutionTime = 1.17 s  ClockTime = 1 s

Courant Number mean: 1.552598781e-05 max: 0.002025603715
deltaT = 5.159774518e-07
Time = 2.49587e-06

diagonal:  Solving for rho1, Initial residual = 0, Final residual = 0, No Iterations 0
diagonal:  Solving for rho2, Initial residual = 0, Final residual = 0, No Iterations 0
PIMPLE: iteration 1
MULES: Solving for volumeFraction1
Phase-1 volume fraction = 0  Min(volumeFraction1) = 0  Max(volumeFraction1) = 0
 max: rho1 1033.041564 min: 1032.979629
 max: rho2 0.9989740407 min: 0.124871764
DILUPBiCGStab:  Solving for T, Initial residual = 2.42411122e-06, Final residual = 5.72014312e-22, No Iterations 1
 C1 5.213911901 C2 1.18382567
DILUPBiCGStab:  Solving for p_rgh, Initial residual = 8.252705546e-07, Final residual = 1.146058884e-22, No Iterations 1
max/min kappa: 1/0
GAMGPCG:  Solving for pcorr, Initial residual = 1, Final residual = 3.188298538e-21, No Iterations 2
PIMPLE: iteration 2
MULES: Solving for volumeFraction1
Phase-1 volume fraction = 0  Min(volumeFraction1) = 0  Max(volumeFraction1) = 0
 max: rho1 1033.041348 min: 1033.005168
 max: rho2 0.9989740407 min: 0.124871764
DILUPBiCGStab:  Solving for T, Initial residual = 1.659604624e-08, Final residual = 8.373677277e-25, No Iterations 1
 C1 5.213911901 C2 1.18382567
DILUPBiCGStab:  Solving for p_rgh, Initial residual = 3.152702853e-09, Final residual = 3.111209694e-26, No Iterations 1
max/min kappa: 1/0
GAMGPCG:  Solving for pcorr, Initial residual = 1, Final residual = 5.326353436e-21, No Iterations 2
PIMPLE: iteration 3
MULES: Solving for volumeFraction1
Phase-1 volume fraction = 0  Min(volumeFraction1) = 0  Max(volumeFraction1) = 0
 max: rho1 1033.041348 min: 1033.005168
 max: rho2 0.9989740407 min: 0.124871764
DILUPBiCGStab:  Solving for T, Initial residual = 7.333765902e-09, Final residual = 9.239319954e-25, No Iterations 1
 C1 5.213911901 C2 1.18382567
DILUPBiCGStab:  Solving for p_rgh, Initial residual = 1.236424422e-09, Final residual = 3.043361778e-25, No Iterations 1
max/min kappa: 1/0
GAMGPCG:  Solving for pcorr, Initial residual = 1, Final residual = 2.11350083e-20, No Iterations 2
ExecutionTime = 1.28 s  ClockTime = 2 s

Courant Number mean: 9.740698735e-07 max: 0.002425247309
deltaT = 6.191719838e-07
Time = 3.11504e-06

diagonal:  Solving for rho1, Initial residual = 0, Final residual = 0, No Iterations 0
diagonal:  Solving for rho2, Initial residual = 0, Final residual = 0, No Iterations 0
PIMPLE: iteration 1
MULES: Solving for volumeFraction1
Phase-1 volume fraction = 0  Min(volumeFraction1) = 0  Max(volumeFraction1) = 0
 max: rho1 1033.06061 min: 1032.949929
 max: rho2 0.9989740407 min: 0.124871764
DILUPBiCGStab:  Solving for T, Initial residual = 2.86290676e-06, Final residual = 3.505797871e-22, No Iterations 1
 C1 5.213911901 C2 1.18382567
DILUPBiCGStab:  Solving for p_rgh, Initial residual = 9.81376725e-07, Final residual = 1.594986195e-24, No Iterations 1
max/min kappa: 1/0
GAMGPCG:  Solving for pcorr, Initial residual = 1, Final residual = 1.653759117e-20, No Iterations 2
PIMPLE: iteration 2
MULES: Solving for volumeFraction1
Phase-1 volume fraction = 0  Min(volumeFraction1) = 0  Max(volumeFraction1) = 0
 max: rho1 1033.041348 min: 1033.005168
 max: rho2 0.9989740407 min: 0.124871764
DILUPBiCGStab:  Solving for T, Initial residual = 2.112276382e-08, Final residual = 2.175660863e-24, No Iterations 1
 C1 5.213911901 C2 1.18382567
DILUPBiCGStab:  Solving for p_rgh, Initial residual = 4.203941775e-09, Final residual = 7.492792756e-26, No Iterations 1
max/min kappa: 1/0
GAMGPCG:  Solving for pcorr, Initial residual = 1, Final residual = 7.238434415e-20, No Iterations 2
PIMPLE: iteration 3
MULES: Solving for volumeFraction1
Phase-1 volume fraction = 0  Min(volumeFraction1) = 0  Max(volumeFraction1) = 0
 max: rho1 1033.041348 min: 1033.005168
 max: rho2 0.9989740407 min: 0.124871764
DILUPBiCGStab:  Solving for T, Initial residual = 9.712257021e-09, Final residual = 5.554738577e-27, No Iterations 1
 C1 5.213911901 C2 1.18382567
DILUPBiCGStab:  Solving for p_rgh, Initial residual = 1.683734058e-09, Final residual = 2.98736125e-25, No Iterations 1
max/min kappa: 1/0
GAMGPCG:  Solving for pcorr, Initial residual = 1, Final residual = 1.258078357e-19, No Iterations 2
ExecutionTime = 1.4 s  ClockTime = 2 s

Courant Number mean: 1.176763489e-06 max: 0.002926609269
deltaT = 7.430050004e-07
Time = 3.85804e-06

diagonal:  Solving for rho1, Initial residual = 0, Final residual = 0, No Iterations 0
diagonal:  Solving for rho2, Initial residual = 0, Final residual = 0, No Iterations 0
PIMPLE: iteration 1
MULES: Solving for volumeFraction1
Phase-1 volume fraction = 0  Min(volumeFraction1) = 0  Max(volumeFraction1) = 0
 max: rho1 1033.088419 min: 1032.907301
 max: rho2 0.9989740407 min: 0.124871764
DILUPBiCGStab:  Solving for T, Initial residual = 3.373726919e-06, Final residual = 6.165841202e-22, No Iterations 1
 C1 5.213911901 C2 1.18382567
DILUPBiCGStab:  Solving for p_rgh, Initial residual = 1.165710274e-06, Final residual = 2.459479534e-22, No Iterations 1
max/min kappa: 1/0
GAMGPCG:  Solving for pcorr, Initial residual = 1, Final residual = 2.511369245e-20, No Iterations 2
PIMPLE: iteration 2
MULES: Solving for volumeFraction1
Phase-1 volume fraction = 0  Min(volumeFraction1) = 0  Max(volumeFraction1) = 0
 max: rho1 1033.041348 min: 1033.005168
 max: rho2 0.9989740407 min: 0.124871764
DILUPBiCGStab:  Solving for T, Initial residual = 2.985392176e-08, Final residual = 2.819411277e-24, No Iterations 1
 C1 5.213911901 C2 1.18382567
DILUPBiCGStab:  Solving for p_rgh, Initial residual = 5.954589032e-09, Final residual = 1.008088261e-25, No Iterations 1
max/min kappa: 1/0
GAMGPCG:  Solving for pcorr, Initial residual = 0.9999999999, Final residual = 5.487048329e-21, No Iterations 2
PIMPLE: iteration 3
MULES: Solving for volumeFraction1
Phase-1 volume fraction = 0  Min(volumeFraction1) = 0  Max(volumeFraction1) = 0
 max: rho1 1033.041348 min: 1033.005168
 max: rho2 0.9989740407 min: 0.124871764
DILUPBiCGStab:  Solving for T, Initial residual = 1.383272674e-08, Final residual = 1.011402527e-24, No Iterations 1
 C1 5.213911901 C2 1.18382567
DILUPBiCGStab:  Solving for p_rgh, Initial residual = 2.399632916e-09, Final residual = 5.996787538e-26, No Iterations 1
max/min kappa: 1/0
GAMGPCG:  Solving for pcorr, Initial residual = 1, Final residual = 1.151998554e-20, No Iterations 2
ExecutionTime = 1.55 s  ClockTime = 2 s

Courant Number mean: 1.423733695e-06 max: 0.003536008552
deltaT = 8.916060004e-07
Time = 4.74965e-06

diagonal:  Solving for rho1, Initial residual = 0, Final residual = 0, No Iterations 0
diagonal:  Solving for rho2, Initial residual = 0, Final residual = 0, No Iterations 0
PIMPLE: iteration 1
MULES: Solving for volumeFraction1
Phase-1 volume fraction = 0  Min(volumeFraction1) = 0  Max(volumeFraction1) = 0
 max: rho1 1033.128776 min: 1032.846514
 max: rho2 0.9989740407 min: 0.124871764
DILUPBiCGStab:  Solving for T, Initial residual = 3.962932021e-06, Final residual = 7.630894956e-22, No Iterations 1
 C1 5.213911901 C2 1.18382567
DILUPBiCGStab:  Solving for p_rgh, Initial residual = 1.382663658e-06, Final residual = 1.024565179e-22, No Iterations 1
max/min kappa: 1/0
GAMGPCG:  Solving for pcorr, Initial residual = 1, Final residual = 1.871257946e-20, No Iterations 2
PIMPLE: iteration 2
MULES: Solving for volumeFraction1
Phase-1 volume fraction = 0  Min(volumeFraction1) = 0  Max(volumeFraction1) = 0
 max: rho1 1033.041348 min: 1033.005168
 max: rho2 0.9989740407 min: 0.124871764
DILUPBiCGStab:  Solving for T, Initial residual = 4.219570333e-08, Final residual = 9.672296339e-25, No Iterations 1
 C1 5.213911901 C2 1.18382567
DILUPBiCGStab:  Solving for p_rgh, Initial residual = 8.424652748e-09, Final residual = 1.24285092e-24, No Iterations 1
max/min kappa: 1/0
GAMGPCG:  Solving for pcorr, Initial residual = 1, Final residual = 9.219502885e-21, No Iterations 2
PIMPLE: iteration 3
MULES: Solving for volumeFraction1
Phase-1 volume fraction = 0  Min(volumeFraction1) = 0  Max(volumeFraction1) = 0
 max: rho1 1033.041348 min: 1033.005168
 max: rho2 0.9989740407 min: 0.124871764
DILUPBiCGStab:  Solving for T, Initial residual = 1.980270943e-08, Final residual = 2.95713985e-24, No Iterations 1
 C1 5.213911901 C2 1.18382567
DILUPBiCGStab:  Solving for p_rgh, Initial residual = 3.413086416e-09, Final residual = 5.977190505e-25, No Iterations 1
max/min kappa: 1/0
GAMGPCG:  Solving for pcorr, Initial residual = 1, Final residual = 3.057480684e-19, No Iterations 2
ExecutionTime = 1.68 s  ClockTime = 2 s

Courant Number mean: 1.725625421e-06 max: 0.004278773882
deltaT = 1.069928154e-06
Time = 5.81958e-06

diagonal:  Solving for rho1, Initial residual = 0, Final residual = 0, No Iterations 0
diagonal:  Solving for rho2, Initial residual = 0, Final residual = 0, No Iterations 0
PIMPLE: iteration 1
MULES: Solving for volumeFraction1
Phase-1 volume fraction = 0  Min(volumeFraction1) = 0  Max(volumeFraction1) = 0
 max: rho1 1033.187024 min: 1032.760398
 max: rho2 0.9989740407 min: 0.124871764
DILUPBiCGStab:  Solving for T, Initial residual = 4.637778902e-06, Final residual = 4.660861711e-24, No Iterations 1
 C1 5.213911901 C2 1.18382567
DILUPBiCGStab:  Solving for p_rgh, Initial residual = 1.639779946e-06, Final residual = 2.404637561e-22, No Iterations 1
max/min kappa: 1/0
GAMGPCG:  Solving for pcorr, Initial residual = 1, Final residual = 8.630239002e-20, No Iterations 2
PIMPLE: iteration 2
MULES: Solving for volumeFraction1
Phase-1 volume fraction = 0  Min(volumeFraction1) = 0  Max(volumeFraction1) = 0
 max: rho1 1033.041348 min: 1033.005168
 max: rho2 0.9989740407 min: 0.124871764
DILUPBiCGStab:  Solving for T, Initial residual = 5.265643667e-08, Final residual = 1.045088732e-23, No Iterations 1
 C1 5.213911901 C2 1.18382567
DILUPBiCGStab:  Solving for p_rgh, Initial residual = 6.342552472e-09, Final residual = 1.433777214e-25, No Iterations 1
max/min kappa: 1/0
GAMGPCG:  Solving for pcorr, Initial residual = 1, Final residual = 1.874232383e-20, No Iterations 2
PIMPLE: iteration 3
MULES: Solving for volumeFraction1
Phase-1 volume fraction = 0  Min(volumeFraction1) = 0  Max(volumeFraction1) = 0
 max: rho1 1033.041348 min: 1033.005168
 max: rho2 0.9989740407 min: 0.124871764
DILUPBiCGStab:  Solving for T, Initial residual = 1.232921003e-08, Final residual = 5.171425077e-25, No Iterations 1
 C1 5.213911901 C2 1.18382567
DILUPBiCGStab:  Solving for p_rgh, Initial residual = 2.86982881e-09, Final residual = 2.869565772e-25, No Iterations 1
max/min kappa: 1/0
GAMGPCG:  Solving for pcorr, Initial residual = 1, Final residual = 1.303279808e-19, No Iterations 2
ExecutionTime = 1.86 s  ClockTime = 2 s

Courant Number mean: 2.099014753e-06 max: 0.005194409531
deltaT = 1.283915159e-06
Time = 7.10349e-06

diagonal:  Solving for rho1, Initial residual = 0, Final residual = 0, No Iterations 0
diagonal:  Solving for rho2, Initial residual = 0, Final residual = 0, No Iterations 0
PIMPLE: iteration 1
MULES: Solving for volumeFraction1
Phase-1 volume fraction = 0  Min(volumeFraction1) = 0  Max(volumeFraction1) = 0
 max: rho1 1033.270655 min: 1032.639272
 max: rho2 0.9989740407 min: 0.124871764
DILUPBiCGStab:  Solving for T, Initial residual = 5.437241111e-06, Final residual = 7.104316422e-22, No Iterations 1
 C1 5.213911901 C2 1.18382567
DILUPBiCGStab:  Solving for p_rgh, Initial residual = 1.95463867e-06, Final residual = 1.431352689e-22, No Iterations 1
max/min kappa: 1/0
GAMGPCG:  Solving for pcorr, Initial residual = 0.9999999998, Final residual = 1.565967764e-21, No Iterations 2
PIMPLE: iteration 2
MULES: Solving for volumeFraction1
Phase-1 volume fraction = 0  Min(volumeFraction1) = 0  Max(volumeFraction1) = 0
 max: rho1 1033.041348 min: 1033.005168
 max: rho2 0.9989740407 min: 0.124871764
DILUPBiCGStab:  Solving for T, Initial residual = 6.532580012e-08, Final residual = 6.969966523e-24, No Iterations 1
 C1 5.213911901 C2 1.18382567
DILUPBiCGStab:  Solving for p_rgh, Initial residual = 8.581142257e-09, Final residual = 1.454809676e-24, No Iterations 1
max/min kappa: 1/0
GAMGPCG:  Solving for pcorr, Initial residual = 0.9999999997, Final residual = 5.469105836e-21, No Iterations 2
PIMPLE: iteration 3
MULES: Solving for volumeFraction1
Phase-1 volume fraction = 0  Min(volumeFraction1) = 0  Max(volumeFraction1) = 0
 max: rho1 1033.041348 min: 1033.005168
 max: rho2 0.9989740407 min: 0.124871764
DILUPBiCGStab:  Solving for T, Initial residual = 1.805408032e-08, Final residual = 3.148797346e-24, No Iterations 1
 C1 5.213911901 C2 1.18382567
DILUPBiCGStab:  Solving for p_rgh, Initial residual = 4.088334232e-09, Final residual = 3.456922823e-25, No Iterations 1
max/min kappa: 1/0
GAMGPCG:  Solving for pcorr, Initial residual = 0.9999999997, Final residual = 1.471240976e-20, No Iterations 2
ExecutionTime = 2.06 s  ClockTime = 2 s

Courant Number mean: 2.561411671e-06 max: 0.006323933995
deltaT = 1.540694235e-06
Time = 8.64419e-06

diagonal:  Solving for rho1, Initial residual = 0, Final residual = 0, No Iterations 0
diagonal:  Solving for rho2, Initial residual = 0, Final residual = 0, No Iterations 0
PIMPLE: iteration 1
MULES: Solving for volumeFraction1
Phase-1 volume fraction = 0  Min(volumeFraction1) = 0  Max(volumeFraction1) = 0
 max: rho1 1033.390576 min: 1032.469861
 max: rho2 0.9989740407 min: 0.124871764
DILUPBiCGStab:  Solving for T, Initial residual = 6.362270942e-06, Final residual = 1.292077226e-21, No Iterations 1
 C1 5.213911901 C2 1.18382567
DILUPBiCGStab:  Solving for p_rgh, Initial residual = 2.328873278e-06, Final residual = 3.594232277e-22, No Iterations 1
max/min kappa: 1/0
GAMGPCG:  Solving for pcorr, Initial residual = 1, Final residual = 2.535105211e-20, No Iterations 2
PIMPLE: iteration 2
MULES: Solving for volumeFraction1
Phase-1 volume fraction = 0  Min(volumeFraction1) = 0  Max(volumeFraction1) = 0
 max: rho1 1033.041348 min: 1033.005168
 max: rho2 0.9989740407 min: 0.124871764
DILUPBiCGStab:  Solving for T, Initial residual = 9.787546094e-08, Final residual = 6.659817615e-24, No Iterations 1
 C1 5.213911901 C2 1.18382567
DILUPBiCGStab:  Solving for p_rgh, Initial residual = 1.381338287e-08, Final residual = 1.739347819e-24, No Iterations 1
max/min kappa: 1/0
GAMGPCG:  Solving for pcorr, Initial residual = 0.9999999999, Final residual = 1.6008106e-20, No Iterations 2
PIMPLE: iteration 3
MULES: Solving for volumeFraction1
Phase-1 volume fraction = 0  Min(volumeFraction1) = 0  Max(volumeFraction1) = 0
 max: rho1 1033.041348 min: 1033.005168
 max: rho2 0.9989740407 min: 0.124871764
DILUPBiCGStab:  Solving for T, Initial residual = 3.155818558e-08, Final residual = 1.047201427e-24, No Iterations 1
 C1 5.213911901 C2 1.18382567
DILUPBiCGStab:  Solving for p_rgh, Initial residual = 6.413971529e-09, Final residual = 4.967707805e-25, No Iterations 1
max/min kappa: 1/0
GAMGPCG:  Solving for pcorr, Initial residual = 0.9999999999, Final residual = 1.179380557e-20, No Iterations 2
ExecutionTime = 2.22 s  ClockTime = 3 s

Courant Number mean: 3.135564497e-06 max: 0.007720007278
deltaT = 1.848827384e-06
Time = 1.0493e-05

diagonal:  Solving for rho1, Initial residual = 0, Final residual = 0, No Iterations 0
diagonal:  Solving for rho2, Initial residual = 0, Final residual = 0, No Iterations 0
PIMPLE: iteration 1
MULES: Solving for volumeFraction1
Phase-1 volume fraction = 0  Min(volumeFraction1) = 0  Max(volumeFraction1) = 0
 max: rho1 1033.562062 min: 1032.234503
 max: rho2 0.9989740407 min: 0.124871764
DILUPBiCGStab:  Solving for T, Initial residual = 7.404060113e-06, Final residual = 4.820355659e-23, No Iterations 1
 C1 5.213911901 C2 1.18382567
DILUPBiCGStab:  Solving for p_rgh, Initial residual = 2.762429564e-06, Final residual = 1.283348277e-23, No Iterations 1
max/min kappa: 1/0
GAMGPCG:  Solving for pcorr, Initial residual = 0.9999999999, Final residual = 7.106547937e-21, No Iterations 2
PIMPLE: iteration 2
MULES: Solving for volumeFraction1
Phase-1 volume fraction = 0  Min(volumeFraction1) = 0  Max(volumeFraction1) = 0
 max: rho1 1033.041348 min: 1033.005168
 max: rho2 0.9989740407 min: 0.124871764
DILUPBiCGStab:  Solving for T, Initial residual = 1.581838399e-07, Final residual = 3.012964302e-23, No Iterations 1
 C1 5.213911901 C2 1.18382567
DILUPBiCGStab:  Solving for p_rgh, Initial residual = 2.314282821e-08, Final residual = 3.183509778e-24, No Iterations 1
max/min kappa: 1/0
GAMGPCG:  Solving for pcorr, Initial residual = 0.9999999999, Final residual = 2.200287252e-21, No Iterations 2
PIMPLE: iteration 3
MULES: Solving for volumeFraction1
Phase-1 volume fraction = 0  Min(volumeFraction1) = 0  Max(volumeFraction1) = 0
 max: rho1 1033.041348 min: 1033.005168
 max: rho2 0.9989740407 min: 0.124871764
DILUPBiCGStab:  Solving for T, Initial residual = 5.543848553e-08, Final residual = 7.539845907e-24, No Iterations 1
 C1 5.213911901 C2 1.18382567
DILUPBiCGStab:  Solving for p_rgh, Initial residual = 1.011463821e-08, Final residual = 9.956148046e-25, No Iterations 1
max/min kappa: 1/0
GAMGPCG:  Solving for pcorr, Initial residual = 0.9999999999, Final residual = 1.826292173e-20, No Iterations 2
ExecutionTime = 2.35 s  ClockTime = 3 s

Courant Number mean: 3.806809567e-06 max: 0.009339718073
deltaT = 2.218580555e-06
Time = 1.27116e-05

diagonal:  Solving for rho1, Initial residual = 0, Final residual = 0, No Iterations 0
diagonal:  Solving for rho2, Initial residual = 0, Final residual = 0, No Iterations 0
PIMPLE: iteration 1
MULES: Solving for volumeFraction1
Phase-1 volume fraction = 0  Min(volumeFraction1) = 0  Max(volumeFraction1) = 0
 max: rho1 1033.807398 min: 1031.911325
 max: rho2 0.9989740407 min: 0.124871764
DILUPBiCGStab:  Solving for T, Initial residual = 8.543928837e-06, Final residual = 6.527566609e-22, No Iterations 1
 C1 5.213911901 C2 1.18382567
DILUPBiCGStab:  Solving for p_rgh, Initial residual = 3.263659335e-06, Final residual = 2.435365336e-22, No Iterations 1
max/min kappa: 1/0
GAMGPCG:  Solving for pcorr, Initial residual = 0.9999999999, Final residual = 2.407896066e-20, No Iterations 2
PIMPLE: iteration 2
MULES: Solving for volumeFraction1
Phase-1 volume fraction = 0  Min(volumeFraction1) = 0  Max(volumeFraction1) = 0
 max: rho1 1033.041348 min: 1033.005168
 max: rho2 0.9989740407 min: 0.124871764
DILUPBiCGStab:  Solving for T, Initial residual = 2.461150669e-07, Final residual = 1.461310333e-23, No Iterations 1
 C1 5.213911901 C2 1.18382567
DILUPBiCGStab:  Solving for p_rgh, Initial residual = 3.747836691e-08, Final residual = 2.861598248e-24, No Iterations 1
max/min kappa: 1/0
GAMGPCG:  Solving for pcorr, Initial residual = 0.9999999999, Final residual = 2.660966181e-19, No Iterations 2
PIMPLE: iteration 3
MULES: Solving for volumeFraction1
Phase-1 volume fraction = 0  Min(volumeFraction1) = 0  Max(volumeFraction1) = 0
 max: rho1 1033.041348 min: 1033.005168
 max: rho2 0.9989740407 min: 0.124871764
DILUPBiCGStab:  Solving for T, Initial residual = 9.101508228e-08, Final residual = 5.394738566e-24, No Iterations 1
 C1 5.213911901 C2 1.18382567
DILUPBiCGStab:  Solving for p_rgh, Initial residual = 1.560766787e-08, Final residual = 2.393256652e-24, No Iterations 1
max/min kappa: 1/0
GAMGPCG:  Solving for pcorr, Initial residual = 0.9999999999, Final residual = 1.036148017e-20, No Iterations 2
ExecutionTime = 2.47 s  ClockTime = 3 s

Courant Number mean: 4.634736832e-06 max: 0.01132239531
deltaT = 2.66230848e-06
Time = 1.53739e-05

diagonal:  Solving for rho1, Initial residual = 0, Final residual = 0, No Iterations 0
diagonal:  Solving for rho2, Initial residual = 0, Final residual = 0, No Iterations 0
PIMPLE: iteration 1
MULES: Solving for volumeFraction1
Phase-1 volume fraction = 0  Min(volumeFraction1) = 0  Max(volumeFraction1) = 0
 max: rho1 1034.154568 min: 1031.473232
 max: rho2 0.9989740407 min: 0.124871764
DILUPBiCGStab:  Solving for T, Initial residual = 9.828595082e-06, Final residual = 7.369364047e-22, No Iterations 1
 C1 5.213911901 C2 1.18382567
DILUPBiCGStab:  Solving for p_rgh, Initial residual = 3.851743988e-06, Final residual = 2.85413791e-25, No Iterations 1
max/min kappa: 1/0
GAMGPCG:  Solving for pcorr, Initial residual = 0.9999999999, Final residual = 1.377749624e-20, No Iterations 2
PIMPLE: iteration 2
MULES: Solving for volumeFraction1
Phase-1 volume fraction = 0  Min(volumeFraction1) = 0  Max(volumeFraction1) = 0
 max: rho1 1033.041348 min: 1033.005168
 max: rho2 0.9989740407 min: 0.124871764
DILUPBiCGStab:  Solving for T, Initial residual = 3.47695813e-07, Final residual = 4.92847198e-23, No Iterations 1
 C1 5.213911901 C2 1.18382567
DILUPBiCGStab:  Solving for p_rgh, Initial residual = 5.509131877e-08, Final residual = 5.263417321e-24, No Iterations 1
max/min kappa: 1/0
GAMGPCG:  Solving for pcorr, Initial residual = 0.9999999999, Final residual = 8.394249168e-21, No Iterations 2
PIMPLE: iteration 3
MULES: Solving for volumeFraction1
Phase-1 volume fraction = 0  Min(volumeFraction1) = 0  Max(volumeFraction1) = 0
 max: rho1 1033.041348 min: 1033.005168
 max: rho2 0.9989740407 min: 0.124871764
DILUPBiCGStab:  Solving for T, Initial residual = 1.363910101e-07, Final residual = 1.438779844e-23, No Iterations 1
 C1 5.213911901 C2 1.18382567
DILUPBiCGStab:  Solving for p_rgh, Initial residual = 2.250139736e-08, Final residual = 1.150646704e-24, No Iterations 1
max/min kappa: 1/0
GAMGPCG:  Solving for pcorr, Initial residual = 0.9999999999, Final residual = 1.931656652e-10, No Iterations 1
ExecutionTime = 2.57 s  ClockTime = 3 s

Courant Number mean: 5.664950412e-06 max: 0.01376714292
deltaT = 3.194744658e-06
Time = 1.85686e-05

diagonal:  Solving for rho1, Initial residual = 0, Final residual = 0, No Iterations 0
diagonal:  Solving for rho2, Initial residual = 0, Final residual = 0, No Iterations 0
PIMPLE: iteration 1
MULES: Solving for volumeFraction1
Phase-1 volume fraction = 0  Min(volumeFraction1) = 0  Max(volumeFraction1) = 0
 max: rho1 1034.644828 min: 1030.882636
 max: rho2 0.9989740407 min: 0.124871764
DILUPBiCGStab:  Solving for T, Initial residual = 1.122560954e-05, Final residual = 1.879139282e-21, No Iterations 1
 C1 5.213911901 C2 1.18382567
DILUPBiCGStab:  Solving for p_rgh, Initial residual = 4.536186029e-06, Final residual = 4.17494572e-22, No Iterations 1
max/min kappa: 1/0
GAMGPCG:  Solving for pcorr, Initial residual = 0.9999999999, Final residual = 3.05698346e-20, No Iterations 2
PIMPLE: iteration 2
MULES: Solving for volumeFraction1
Phase-1 volume fraction = 0  Min(volumeFraction1) = 0  Max(volumeFraction1) = 0
 max: rho1 1033.041348 min: 1033.005168
 max: rho2 0.9989740407 min: 0.124871764
DILUPBiCGStab:  Solving for T, Initial residual = 4.940336376e-07, Final residual = 7.350798602e-24, No Iterations 1
 C1 5.213911901 C2 1.18382567
DILUPBiCGStab:  Solving for p_rgh, Initial residual = 8.184856713e-08, Final residual = 7.070294139e-25, No Iterations 1
max/min kappa: 1/0
GAMGPCG:  Solving for pcorr, Initial residual = 0.9999999996, Final residual = 1.50920331e-21, No Iterations 2
PIMPLE: iteration 3
MULES: Solving for volumeFraction1
Phase-1 volume fraction = 0  Min(volumeFraction1) = 0  Max(volumeFraction1) = 0
 max: rho1 1033.041348 min: 1033.005168
 max: rho2 0.9989740407 min: 0.124871764
DILUPBiCGStab:  Solving for T, Initial residual = 2.024108203e-07, Final residual = 2.08297907e-23, No Iterations 1
 C1 5.213911901 C2 1.18382567
DILUPBiCGStab:  Solving for p_rgh, Initial residual = 3.232845228e-08, Final residual = 5.512259587e-24, No Iterations 1
max/min kappa: 1/0
GAMGPCG:  Solving for pcorr, Initial residual = 0.9999999998, Final residual = 5.711480752e-21, No Iterations 2
ExecutionTime = 2.68 s  ClockTime = 3 s

Courant Number mean: 6.956711023e-06 max: 0.01679895998
deltaT = 3.833705838e-06
Time = 2.24024e-05

diagonal:  Solving for rho1, Initial residual = 0, Final residual = 0, No Iterations 0
diagonal:  Solving for rho2, Initial residual = 0, Final residual = 0, No Iterations 0
PIMPLE: iteration 1
MULES: Solving for volumeFraction1
Phase-1 volume fraction = 0  Min(volumeFraction1) = 0  Max(volumeFraction1) = 0
 max: rho1 1035.334951 min: 1030.09382
 max: rho2 0.9989740407 min: 0.124871764
DILUPBiCGStab:  Solving for T, Initial residual = 1.272067112e-05, Final residual = 1.193295787e-21, No Iterations 1
 C1 5.213911901 C2 1.18382567
DILUPBiCGStab:  Solving for p_rgh, Initial residual = 5.32799849e-06, Final residual = 4.225238715e-22, No Iterations 1
max/min kappa: 1/0
GAMGPCG:  Solving for pcorr, Initial residual = 0.9999999999, Final residual = 2.150436208e-20, No Iterations 2
PIMPLE: iteration 2
MULES: Solving for volumeFraction1
Phase-1 volume fraction = 0  Min(volumeFraction1) = 0  Max(volumeFraction1) = 0
 max: rho1 1033.041348 min: 1033.005168
 max: rho2 0.9989740407 min: 0.124871764
DILUPBiCGStab:  Solving for T, Initial residual = 6.960198711e-07, Final residual = 1.659071134e-23, No Iterations 1
 C1 5.213911901 C2 1.18382567
DILUPBiCGStab:  Solving for p_rgh, Initial residual = 1.149064452e-07, Final residual = 9.916492125e-24, No Iterations 1
max/min kappa: 1/0
GAMGPCG:  Solving for pcorr, Initial residual = 0.9999999998, Final residual = 7.866945674e-21, No Iterations 2
PIMPLE: iteration 3
MULES: Solving for volumeFraction1
Phase-1 volume fraction = 0  Min(volumeFraction1) = 0  Max(volumeFraction1) = 0
 max: rho1 1033.041348 min: 1033.005168
 max: rho2 0.9989740407 min: 0.124871764
DILUPBiCGStab:  Solving for T, Initial residual = 3.01218623e-07, Final residual = 3.173191349e-23, No Iterations 1
 C1 5.213911901 C2 1.18382567
DILUPBiCGStab:  Solving for p_rgh, Initial residual = 4.670415948e-08, Final residual = 2.467101215e-24, No Iterations 1
max/min kappa: 1/0
GAMGPCG:  Solving for pcorr, Initial residual = 0.9999999999, Final residual = 5.61860807e-21, No Iterations 2
ExecutionTime = 2.8 s  ClockTime = 3 s

Courant Number mean: 8.589109977e-06 max: 0.02058051155
deltaT = 4.600464645e-06
Time = 2.70028e-05

diagonal:  Solving for rho1, Initial residual = 0, Final residual = 0, No Iterations 0
diagonal:  Solving for rho2, Initial residual = 0, Final residual = 0, No Iterations 0
PIMPLE: iteration 1
MULES: Solving for volumeFraction1
Phase-1 volume fraction = 0  Min(volumeFraction1) = 0  Max(volumeFraction1) = 0
 max: rho1 1036.303824 min: 1029.049607
 max: rho2 0.9989740407 min: 0.124871764
DILUPBiCGStab:  Solving for T, Initial residual = 1.433702077e-05, Final residual = 2.078438315e-21, No Iterations 1
 C1 5.213911901 C2 1.18382567
DILUPBiCGStab:  Solving for p_rgh, Initial residual = 6.217575417e-06, Final residual = 6.710449691e-23, No Iterations 1
max/min kappa: 1/0
GAMGPCG:  Solving for pcorr, Initial residual = 0.9999999998, Final residual = 5.495647041e-21, No Iterations 2
PIMPLE: iteration 2
MULES: Solving for volumeFraction1
Phase-1 volume fraction = 0  Min(volumeFraction1) = 0  Max(volumeFraction1) = 0
 max: rho1 1033.041348 min: 1033.005168
 max: rho2 0.9989740407 min: 0.124871764
DILUPBiCGStab:  Solving for T, Initial residual = 9.065240645e-07, Final residual = 9.944851824e-23, No Iterations 1
 C1 5.213911901 C2 1.18382567
DILUPBiCGStab:  Solving for p_rgh, Initial residual = 1.561735997e-07, Final residual = 1.017976419e-23, No Iterations 1
max/min kappa: 1/0
GAMGPCG:  Solving for pcorr, Initial residual = 0.9999999998, Final residual = 2.459821277e-20, No Iterations 2
PIMPLE: iteration 3
MULES: Solving for volumeFraction1
Phase-1 volume fraction = 0  Min(volumeFraction1) = 0  Max(volumeFraction1) = 0
 max: rho1 1033.041348 min: 1033.005168
 max: rho2 0.9989740407 min: 0.124871764
DILUPBiCGStab:  Solving for T, Initial residual = 4.063998361e-07, Final residual = 3.24861447e-23, No Iterations 1
 C1 5.213911901 C2 1.18382567
DILUPBiCGStab:  Solving for p_rgh, Initial residual = 5.794880846e-08, Final residual = 3.979237083e-24, No Iterations 1
max/min kappa: 1/0
GAMGPCG:  Solving for pcorr, Initial residual = 0.9999999998, Final residual = 7.37402063e-21, No Iterations 2
ExecutionTime = 2.91 s  ClockTime = 3 s

Courant Number mean: 1.05467115e-05 max: 0.02514457831
deltaT = 5.520608375e-06
Time = 3.25234e-05

diagonal:  Solving for rho1, Initial residual = 0, Final residual = 0, No Iterations 0
diagonal:  Solving for rho2, Initial residual = 0, Final residual = 0, No Iterations 0
PIMPLE: iteration 1
MULES: Solving for volumeFraction1
Phase-1 volume fraction = 0  Min(volumeFraction1) = 0  Max(volumeFraction1) = 0
 max: rho1 1037.662587 min: 1027.668506
 max: rho2 0.9989740407 min: 0.124871764
DILUPBiCGStab:  Solving for T, Initial residual = 1.66394156e-05, Final residual = 1.533606077e-21, No Iterations 1
 C1 5.213911901 C2 1.18382567
DILUPBiCGStab:  Solving for p_rgh, Initial residual = 7.327065379e-06, Final residual = 6.889696073e-22, No Iterations 1
max/min kappa: 1/0
GAMGPCG:  Solving for pcorr, Initial residual = 0.9999999998, Final residual = 7.786034394e-10, No Iterations 1
PIMPLE: iteration 2
MULES: Solving for volumeFraction1
Phase-1 volume fraction = 0  Min(volumeFraction1) = 0  Max(volumeFraction1) = 0
 max: rho1 1033.041348 min: 1033.005168
 max: rho2 0.9989740407 min: 0.124871764
DILUPBiCGStab:  Solving for T, Initial residual = 1.247114906e-06, Final residual = 8.507884027e-23, No Iterations 1
 C1 5.213911901 C2 1.18382567
DILUPBiCGStab:  Solving for p_rgh, Initial residual = 2.318456954e-07, Final residual = 1.099522811e-23, No Iterations 1
max/min kappa: 1/0
GAMGPCG:  Solving for pcorr, Initial residual = 0.9999999998, Final residual = 3.490238226e-10, No Iterations 1
PIMPLE: iteration 3
MULES: Solving for volumeFraction1
Phase-1 volume fraction = 0  Min(volumeFraction1) = 0  Max(volumeFraction1) = 0
 max: rho1 1033.041348 min: 1033.005168
 max: rho2 0.9989740407 min: 0.124871764
DILUPBiCGStab:  Solving for T, Initial residual = 6.233424967e-07, Final residual = 6.270227507e-23, No Iterations 1
 C1 5.213911901 C2 1.18382567
DILUPBiCGStab:  Solving for p_rgh, Initial residual = 7.695096991e-08, Final residual = 6.108050616e-24, No Iterations 1
max/min kappa: 1/0
GAMGPCG:  Solving for pcorr, Initial residual = 0.9999999998, Final residual = 3.609754992e-10, No Iterations 1
ExecutionTime = 3.01 s  ClockTime = 4 s

Courant Number mean: 1.324100297e-05 max: 0.03122140582
deltaT = 6.62473005e-06
Time = 3.91482e-05

diagonal:  Solving for rho1, Initial residual = 0, Final residual = 0, No Iterations 0
diagonal:  Solving for rho2, Initial residual = 0, Final residual = 0, No Iterations 0
PIMPLE: iteration 1
MULES: Solving for volumeFraction1
Phase-1 volume fraction = 0  Min(volumeFraction1) = 0  Max(volumeFraction1) = 0
 max: rho1 1039.562175 min: 1025.885465
 max: rho2 0.9989740407 min: 0.124871764
DILUPBiCGStab:  Solving for T, Initial residual = 1.857812725e-05, Final residual = 1.661960883e-21, No Iterations 1
 C1 5.213911901 C2 1.18382567
DILUPBiCGStab:  Solving for p_rgh, Initial residual = 8.438972298e-06, Final residual = 1.102612282e-21, No Iterations 1
max/min kappa: 1/0
GAMGPCG:  Solving for pcorr, Initial residual = 0.9999999998, Final residual = 4.069854666e-20, No Iterations 2
PIMPLE: iteration 2
MULES: Solving for volumeFraction1
Phase-1 volume fraction = 0  Min(volumeFraction1) = 0  Max(volumeFraction1) = 0
 max: rho1 1033.041348 min: 1033.005168
 max: rho2 0.9989740407 min: 0.124871764
DILUPBiCGStab:  Solving for T, Initial residual = 1.01282512e-06, Final residual = 1.131308733e-22, No Iterations 1
 C1 5.213911901 C2 1.18382567
DILUPBiCGStab:  Solving for p_rgh, Initial residual = 2.445082529e-07, Final residual = 1.491562886e-23, No Iterations 1
max/min kappa: 1/0
GAMGPCG:  Solving for pcorr, Initial residual = 0.9999999997, Final residual = 2.252556881e-20, No Iterations 2
PIMPLE: iteration 3
MULES: Solving for volumeFraction1
Phase-1 volume fraction = 0  Min(volumeFraction1) = 0  Max(volumeFraction1) = 0
 max: rho1 1033.041348 min: 1033.005168
 max: rho2 0.9989740407 min: 0.124871764
DILUPBiCGStab:  Solving for T, Initial residual = 6.722177548e-07, Final residual = 7.611105629e-24, No Iterations 1
 C1 5.213911901 C2 1.18382567
DILUPBiCGStab:  Solving for p_rgh, Initial residual = 8.171847759e-08, Final residual = 1.076450458e-23, No Iterations 1
max/min kappa: 1/0
GAMGPCG:  Solving for pcorr, Initial residual = 0.9999999997, Final residual = 4.689543755e-20, No Iterations 2
ExecutionTime = 3.12 s  ClockTime = 4 s

Courant Number mean: 1.67662143e-05 max: 0.03895202015
deltaT = 7.949781411e-06
Time = 4.70979e-05

diagonal:  Solving for rho1, Initial residual = 0, Final residual = 0, No Iterations 0
diagonal:  Solving for rho2, Initial residual = 0, Final residual = 0, No Iterations 0
PIMPLE: iteration 1
MULES: Solving for volumeFraction1
Phase-1 volume fraction = 0  Min(volumeFraction1) = 0  Max(volumeFraction1) = 0
 max: rho1 1042.210462 min: 1023.580297
 max: rho2 0.9989740407 min: 0.124871764
DILUPBiCGStab:  Solving for T, Initial residual = 2.047627903e-05, Final residual = 5.59656205e-22, No Iterations 1
 C1 5.221895546 C2 1.185638367
DILUPBiCGStab:  Solving for p_rgh, Initial residual = 9.768002657e-06, Final residual = 1.432054729e-21, No Iterations 1
max/min kappa: 1/0
GAMGPCG:  Solving for pcorr, Initial residual = 0.9999999998, Final residual = 9.563834781e-21, No Iterations 2
PIMPLE: iteration 2
MULES: Solving for volumeFraction1
Phase-1 volume fraction = 0  Min(volumeFraction1) = 0  Max(volumeFraction1) = 0
 max: rho1 1033.041348 min: 1033.005168
 max: rho2 0.9989740407 min: 0.124871764
DILUPBiCGStab:  Solving for T, Initial residual = 1.293207895e-06, Final residual = 2.176109309e-23, No Iterations 1
 C1 5.218769127 C2 1.18492851
DILUPBiCGStab:  Solving for p_rgh, Initial residual = 3.202012133e-07, Final residual = 5.623126403e-24, No Iterations 1
max/min kappa: 1/0
GAMGPCG:  Solving for pcorr, Initial residual = 0.9999999996, Final residual = 4.194952921e-20, No Iterations 2
PIMPLE: iteration 3
MULES: Solving for volumeFraction1
Phase-1 volume fraction = 0  Min(volumeFraction1) = 0  Max(volumeFraction1) = 0
 max: rho1 1033.041348 min: 1033.005168
 max: rho2 0.9989740407 min: 0.124871764
DILUPBiCGStab:  Solving for T, Initial residual = 8.695174949e-07, Final residual = 5.373213057e-24, No Iterations 1
 C1 5.215805201 C2 1.184255546
DILUPBiCGStab:  Solving for p_rgh, Initial residual = 1.01975202e-07, Final residual = 6.106492306e-24, No Iterations 1
max/min kappa: 1/0
GAMGPCG:  Solving for pcorr, Initial residual = 0.9999999997, Final residual = 3.966874974e-20, No Iterations 2
ExecutionTime = 3.23 s  ClockTime = 4 s

Courant Number mean: 2.137090266e-05 max: 0.04869473112
deltaT = 9.539737694e-06
Time = 5.66377e-05

diagonal:  Solving for rho1, Initial residual = 0, Final residual = 0, No Iterations 0
diagonal:  Solving for rho2, Initial residual = 0, Final residual = 0, No Iterations 0
PIMPLE: iteration 1
MULES: Solving for volumeFraction1
Phase-1 volume fraction = 0  Min(volumeFraction1) = 0  Max(volumeFraction1) = 0
 max: rho1 1045.812194 min: 1020.611824
 max: rho2 0.9989740407 min: 0.124871764
DILUPBiCGStab:  Solving for T, Initial residual = 2.245310081e-05, Final residual = 3.713865721e-21, No Iterations 1
 C1 5.231341112 C2 1.187782996
DILUPBiCGStab:  Solving for p_rgh, Initial residual = 1.12652231e-05, Final residual = 1.689257147e-23, No Iterations 1
max/min kappa: 1/0
GAMGPCG:  Solving for pcorr, Initial residual = 0.9999999997, Final residual = 3.820914995e-21, No Iterations 2
PIMPLE: iteration 2
MULES: Solving for volumeFraction1
Phase-1 volume fraction = 0  Min(volumeFraction1) = 0  Max(volumeFraction1) = 0
 max: rho1 1033.041348 min: 1033.005168
 max: rho2 0.9989740407 min: 0.124871764
DILUPBiCGStab:  Solving for T, Initial residual = 1.610786271e-06, Final residual = 3.158970948e-22, No Iterations 1
 C1 5.228133176 C2 1.187054629
DILUPBiCGStab:  Solving for p_rgh, Initial residual = 4.027284935e-07, Final residual = 8.825560017e-24, No Iterations 1
max/min kappa: 1/0
GAMGPCG:  Solving for pcorr, Initial residual = 0.9999999996, Final residual = 4.686486566e-21, No Iterations 2
PIMPLE: iteration 3
MULES: Solving for volumeFraction1
Phase-1 volume fraction = 0  Min(volumeFraction1) = 0  Max(volumeFraction1) = 0
 max: rho1 1033.041348 min: 1033.005168
 max: rho2 0.9989740407 min: 0.124871764
DILUPBiCGStab:  Solving for T, Initial residual = 1.078631953e-06, Final residual = 1.975843532e-22, No Iterations 1
 C1 5.224683617 C2 1.186271402
DILUPBiCGStab:  Solving for p_rgh, Initial residual = 1.21602717e-07, Final residual = 2.507499899e-23, No Iterations 1
max/min kappa: 1/0
GAMGPCG:  Solving for pcorr, Initial residual = 0.9999999996, Final residual = 3.247500707e-21, No Iterations 2
ExecutionTime = 3.34 s  ClockTime = 4 s

Courant Number mean: 2.741777872e-05 max: 0.06090258761
deltaT = 1.110611355e-05
Time = 6.77438e-05

diagonal:  Solving for rho1, Initial residual = 0, Final residual = 0, No Iterations 0
diagonal:  Solving for rho2, Initial residual = 0, Final residual = 0, No Iterations 0
PIMPLE: iteration 1
MULES: Solving for volumeFraction1
Phase-1 volume fraction = 0  Min(volumeFraction1) = 0  Max(volumeFraction1) = 0
 max: rho1 1049.96792 min: 1017.215183
 max: rho2 0.9989740407 min: 0.124871764
DILUPBiCGStab:  Solving for T, Initial residual = 2.379021747e-05, Final residual = 2.404418449e-21, No Iterations 1
 C1 5.230589486 C2 1.187612338
DILUPBiCGStab:  Solving for p_rgh, Initial residual = 1.255120676e-05, Final residual = 2.107611181e-22, No Iterations 1
max/min kappa: 1/0
GAMGPCG:  Solving for pcorr, Initial residual = 0.9999999997, Final residual = 1.483089939e-19, No Iterations 2
PIMPLE: iteration 2
MULES: Solving for volumeFraction1
Phase-1 volume fraction = 0  Min(volumeFraction1) = 0  Max(volumeFraction1) = 0
 max: rho1 1033.041348 min: 1033.005168
 max: rho2 0.9989740407 min: 0.124871764
DILUPBiCGStab:  Solving for T, Initial residual = 1.872135068e-06, Final residual = 2.794548538e-22, No Iterations 1
 C1 5.227699993 C2 1.186956274
DILUPBiCGStab:  Solving for p_rgh, Initial residual = 4.462773557e-07, Final residual = 2.159620328e-23, No Iterations 1
max/min kappa: 1/0
GAMGPCG:  Solving for pcorr, Initial residual = 0.9999999997, Final residual = 4.386352406e-20, No Iterations 2
PIMPLE: iteration 3
MULES: Solving for volumeFraction1
Phase-1 volume fraction = 0  Min(volumeFraction1) = 0  Max(volumeFraction1) = 0
 max: rho1 1033.041348 min: 1033.005168
 max: rho2 0.9989740407 min: 0.124871764
DILUPBiCGStab:  Solving for T, Initial residual = 1.191757073e-06, Final residual = 1.118180882e-22, No Iterations 1
 C1 5.224030291 C2 1.186123064
DILUPBiCGStab:  Solving for p_rgh, Initial residual = 1.407788137e-07, Final residual = 1.738474631e-23, No Iterations 1
max/min kappa: 1/0
GAMGPCG:  Solving for pcorr, Initial residual = 0.9999999997, Final residual = 3.110986953e-20, No Iterations 2
ExecutionTime = 3.46 s  ClockTime = 4 s

Courant Number mean: 3.407054604e-05 max: 0.0735104961
deltaT = 1.261720663e-05
Time = 8.0361e-05

diagonal:  Solving for rho1, Initial residual = 0, Final residual = 0, No Iterations 0
diagonal:  Solving for rho2, Initial residual = 0, Final residual = 0, No Iterations 0
PIMPLE: iteration 1
MULES: Solving for volumeFraction1
Phase-1 volume fraction = 0  Min(volumeFraction1) = 0  Max(volumeFraction1) = 0
 max: rho1 1054.582364 min: 1013.456173
 max: rho2 0.9989740407 min: 0.124871764
DILUPBiCGStab:  Solving for T, Initial residual = 2.533911688e-05, Final residual = 3.117833403e-21, No Iterations 1
 C1 5.220554102 C2 1.18533379
DILUPBiCGStab:  Solving for p_rgh, Initial residual = 1.36202411e-05, Final residual = 1.482907662e-21, No Iterations 1
max/min kappa: 1/0
GAMGPCG:  Solving for pcorr, Initial residual = 0.9999999997, Final residual = 4.651583129e-20, No Iterations 2
PIMPLE: iteration 2
MULES: Solving for volumeFraction1
Phase-1 volume fraction = 0  Min(volumeFraction1) = 0  Max(volumeFraction1) = 0
 max: rho1 1033.041348 min: 1033.005168
 max: rho2 0.9989740407 min: 0.124871764
DILUPBiCGStab:  Solving for T, Initial residual = 2.207108192e-06, Final residual = 3.328402362e-22, No Iterations 1
 C1 5.217677766 C2 1.184680715
DILUPBiCGStab:  Solving for p_rgh, Initial residual = 4.77095711e-07, Final residual = 6.330934283e-23, No Iterations 1
max/min kappa: 1/0
GAMGPCG:  Solving for pcorr, Initial residual = 0.9999999996, Final residual = 1.423300908e-20, No Iterations 2
PIMPLE: iteration 3
MULES: Solving for volumeFraction1
Phase-1 volume fraction = 0  Min(volumeFraction1) = 0  Max(volumeFraction1) = 0
 max: rho1 1033.041348 min: 1033.005168
 max: rho2 0.9989740407 min: 0.124871764
DILUPBiCGStab:  Solving for T, Initial residual = 1.421520827e-06, Final residual = 9.3013802e-23, No Iterations 1
 C1 5.213911901 C2 1.18382567
DILUPBiCGStab:  Solving for p_rgh, Initial residual = 1.731267505e-07, Final residual = 3.788392401e-23, No Iterations 1
max/min kappa: 1/0
GAMGPCG:  Solving for pcorr, Initial residual = 0.9999999996, Final residual = 3.352721983e-21, No Iterations 2
ExecutionTime = 3.58 s  ClockTime = 4 s

Courant Number mean: 4.109758343e-05 max: 0.08587810176
deltaT = 1.408678403e-05
Time = 9.44478e-05

diagonal:  Solving for rho1, Initial residual = 0, Final residual = 0, No Iterations 0
diagonal:  Solving for rho2, Initial residual = 0, Final residual = 0, No Iterations 0
PIMPLE: iteration 1
MULES: Solving for volumeFraction1
Phase-1 volume fraction = 0  Min(volumeFraction1) = 0  Max(volumeFraction1) = 0
 max: rho1 1059.492337 min: 1009.431237
 max: rho2 0.9989740407 min: 0.124871764
DILUPBiCGStab:  Solving for T, Initial residual = 2.977275029e-05, Final residual = 2.680620715e-21, No Iterations 1
 C1 5.213911901 C2 1.18382567
DILUPBiCGStab:  Solving for p_rgh, Initial residual = 1.45556097e-05, Final residual = 2.773486269e-21, No Iterations 1
max/min kappa: 1/0
GAMGPCG:  Solving for pcorr, Initial residual = 0.9999999997, Final residual = 5.714790216e-20, No Iterations 2
PIMPLE: iteration 2
MULES: Solving for volumeFraction1
Phase-1 volume fraction = 0  Min(volumeFraction1) = 0  Max(volumeFraction1) = 0
 max: rho1 1033.041348 min: 1033.005168
 max: rho2 0.9989740407 min: 0.124871764
DILUPBiCGStab:  Solving for T, Initial residual = 2.23983682e-06, Final residual = 1.949600229e-22, No Iterations 1
 C1 5.213911901 C2 1.18382567
DILUPBiCGStab:  Solving for p_rgh, Initial residual = 4.605919378e-07, Final residual = 2.575389525e-23, No Iterations 1
max/min kappa: 1/0
GAMGPCG:  Solving for pcorr, Initial residual = 0.9999999996, Final residual = 4.731179611e-20, No Iterations 2
PIMPLE: iteration 3
MULES: Solving for volumeFraction1
Phase-1 volume fraction = 0  Min(volumeFraction1) = 0  Max(volumeFraction1) = 0
 max: rho1 1033.041348 min: 1033.005168
 max: rho2 0.9989740407 min: 0.124871764
DILUPBiCGStab:  Solving for T, Initial residual = 1.598837712e-06, Final residual = 1.972580935e-22, No Iterations 1
 C1 5.213911901 C2 1.18382567
DILUPBiCGStab:  Solving for p_rgh, Initial residual = 1.702483345e-07, Final residual = 3.071718137e-23, No Iterations 1
max/min kappa: 1/0
GAMGPCG:  Solving for pcorr, Initial residual = 0.9999999996, Final residual = 6.841014979e-20, No Iterations 2
ExecutionTime = 3.69 s  ClockTime = 4 s

Courant Number mean: 4.894693644e-05 max: 0.09832657669
deltaT = 1.432603929e-05
Time = 0.000108774

diagonal:  Solving for rho1, Initial residual = 0, Final residual = 0, No Iterations 0
diagonal:  Solving for rho2, Initial residual = 0, Final residual = 0, No Iterations 0
PIMPLE: iteration 1
MULES: Solving for volumeFraction1
Phase-1 volume fraction = 0  Min(volumeFraction1) = 0  Max(volumeFraction1) = 0
 max: rho1 1061.918758 min: 1007.448896
 max: rho2 0.9989740407 min: 0.124871764
DILUPBiCGStab:  Solving for T, Initial residual = 3.127997464e-05, Final residual = 2.137725634e-21, No Iterations 1
 C1 5.213911901 C2 1.18382567
DILUPBiCGStab:  Solving for p_rgh, Initial residual = 1.418827254e-05, Final residual = 1.72122006e-21, No Iterations 1
max/min kappa: 1/0
GAMGPCG:  Solving for pcorr, Initial residual = 0.9999999996, Final residual = 3.864184808e-10, No Iterations 1
PIMPLE: iteration 2
MULES: Solving for volumeFraction1
Phase-1 volume fraction = 0  Min(volumeFraction1) = 0  Max(volumeFraction1) = 0
 max: rho1 1033.041348 min: 1033.005168
 max: rho2 0.9989740407 min: 0.124871764
DILUPBiCGStab:  Solving for T, Initial residual = 2.172496771e-06, Final residual = 1.908838642e-22, No Iterations 1
 C1 5.213911901 C2 1.18382567
DILUPBiCGStab:  Solving for p_rgh, Initial residual = 4.240444053e-07, Final residual = 1.446298446e-23, No Iterations 1
max/min kappa: 1/0
GAMGPCG:  Solving for pcorr, Initial residual = 0.9999999995, Final residual = 3.002959138e-10, No Iterations 1
PIMPLE: iteration 3
MULES: Solving for volumeFraction1
Phase-1 volume fraction = 0  Min(volumeFraction1) = 0  Max(volumeFraction1) = 0
 max: rho1 1033.041348 min: 1033.005168
 max: rho2 0.9989740407 min: 0.124871764
DILUPBiCGStab:  Solving for T, Initial residual = 1.510995925e-06, Final residual = 3.955221855e-22, No Iterations 1
 C1 5.213911901 C2 1.18382567
DILUPBiCGStab:  Solving for p_rgh, Initial residual = 1.63475555e-07, Final residual = 2.177115605e-23, No Iterations 1
max/min kappa: 1/0
GAMGPCG:  Solving for pcorr, Initial residual = 0.9999999996, Final residual = 6.110574185e-10, No Iterations 1
ExecutionTime = 3.79 s  ClockTime = 4 s

Courant Number mean: 5.315806671e-05 max: 0.1022104128
deltaT = 1.401663461e-05
Time = 0.00012279

diagonal:  Solving for rho1, Initial residual = 0, Final residual = 0, No Iterations 0
diagonal:  Solving for rho2, Initial residual = 0, Final residual = 0, No Iterations 0
PIMPLE: iteration 1
MULES: Solving for volumeFraction1
Phase-1 volume fraction = 0  Min(volumeFraction1) = 0  Max(volumeFraction1) = 0
 max: rho1 1060.36031 min: 1006.712161
 max: rho2 0.9989740407 min: 0.124871764
DILUPBiCGStab:  Solving for T, Initial residual = 3.108507319e-05, Final residual = 5.170708102e-21, No Iterations 1
 C1 5.213911901 C2 1.18382567
DILUPBiCGStab:  Solving for p_rgh, Initial residual = 1.337214994e-05, Final residual = 1.419598326e-21, No Iterations 1
max/min kappa: 1/0
GAMGPCG:  Solving for pcorr, Initial residual = 0.9999999997, Final residual = 4.179421497e-20, No Iterations 2
PIMPLE: iteration 2
MULES: Solving for volumeFraction1
Phase-1 volume fraction = 0  Min(volumeFraction1) = 0  Max(volumeFraction1) = 0
 max: rho1 1033.041348 min: 1033.005168
 max: rho2 0.9989740407 min: 0.124871764
DILUPBiCGStab:  Solving for T, Initial residual = 1.618696344e-06, Final residual = 7.016604644e-23, No Iterations 1
 C1 5.213911901 C2 1.18382567
DILUPBiCGStab:  Solving for p_rgh, Initial residual = 3.225361604e-07, Final residual = 5.809554327e-23, No Iterations 1
max/min kappa: 1/0
GAMGPCG:  Solving for pcorr, Initial residual = 0.9999999996, Final residual = 3.574018633e-20, No Iterations 2
PIMPLE: iteration 3
MULES: Solving for volumeFraction1
Phase-1 volume fraction = 0  Min(volumeFraction1) = 0  Max(volumeFraction1) = 0
 max: rho1 1033.041348 min: 1033.005168
 max: rho2 0.9989740407 min: 0.124871764
DILUPBiCGStab:  Solving for T, Initial residual = 1.185038497e-06, Final residual = 1.006997413e-22, No Iterations 1
 C1 5.213911901 C2 1.18382567
DILUPBiCGStab:  Solving for p_rgh, Initial residual = 1.33675082e-07, Final residual = 1.064751979e-23, No Iterations 1
max/min kappa: 1/0
GAMGPCG:  Solving for pcorr, Initial residual = 0.9999999997, Final residual = 1.849231982e-20, No Iterations 2
ExecutionTime = 3.9 s  ClockTime = 5 s

Courant Number mean: 5.532651494e-05 max: 0.1013864968
deltaT = 1.382467904e-05
Time = 0.000136615

diagonal:  Solving for rho1, Initial residual = 0, Final residual = 0, No Iterations 0
diagonal:  Solving for rho2, Initial residual = 0, Final residual = 0, No Iterations 0
PIMPLE: iteration 1
MULES: Solving for volumeFraction1
Phase-1 volume fraction = 0  Min(volumeFraction1) = 0  Max(volumeFraction1) = 0
 max: rho1 1058.290679 min: 1006.024633
 max: rho2 0.9989740407 min: 0.124871764
DILUPBiCGStab:  Solving for T, Initial residual = 3.110114241e-05, Final residual = 7.548900854e-21, No Iterations 1
 C1 5.214671373 C2 1.183998109
DILUPBiCGStab:  Solving for p_rgh, Initial residual = 1.28156089e-05, Final residual = 1.238020243e-21, No Iterations 1
max/min kappa: 1/0
GAMGPCG:  Solving for pcorr, Initial residual = 0.9999999997, Final residual = 3.073772585e-20, No Iterations 2
PIMPLE: iteration 2
MULES: Solving for volumeFraction1
Phase-1 volume fraction = 0  Min(volumeFraction1) = 0  Max(volumeFraction1) = 0
 max: rho1 1033.041348 min: 1033.005168
 max: rho2 0.9989740407 min: 0.124871764
DILUPBiCGStab:  Solving for T, Initial residual = 1.161667325e-06, Final residual = 1.206799186e-22, No Iterations 1
 C1 5.215185906 C2 1.184114934
DILUPBiCGStab:  Solving for p_rgh, Initial residual = 2.332085016e-07, Final residual = 3.706856454e-24, No Iterations 1
max/min kappa: 1/0
GAMGPCG:  Solving for pcorr, Initial residual = 0.9999999995, Final residual = 2.936635559e-20, No Iterations 2
PIMPLE: iteration 3
MULES: Solving for volumeFraction1
Phase-1 volume fraction = 0  Min(volumeFraction1) = 0  Max(volumeFraction1) = 0
 max: rho1 1033.041348 min: 1033.005168
 max: rho2 0.9989740407 min: 0.124871764
DILUPBiCGStab:  Solving for T, Initial residual = 9.612752097e-07, Final residual = 7.671384139e-23, No Iterations 1
 C1 5.213911901 C2 1.18382567
DILUPBiCGStab:  Solving for p_rgh, Initial residual = 1.123812597e-07, Final residual = 2.350278386e-23, No Iterations 1
max/min kappa: 1/0
GAMGPCG:  Solving for pcorr, Initial residual = 0.9999999996, Final residual = 2.342512523e-21, No Iterations 2
ExecutionTime = 4.02 s  ClockTime = 5 s

Courant Number mean: 5.78383676e-05 max: 0.10074927
deltaT = 1.372216855e-05
Time = 0.000150337

diagonal:  Solving for rho1, Initial residual = 0, Final residual = 0, No Iterations 0
diagonal:  Solving for rho2, Initial residual = 0, Final residual = 0, No Iterations 0
PIMPLE: iteration 1
MULES: Solving for volumeFraction1
Phase-1 volume fraction = 0  Min(volumeFraction1) = 0  Max(volumeFraction1) = 0
 max: rho1 1056.012407 min: 1005.376845
 max: rho2 0.9989740407 min: 0.124871764
DILUPBiCGStab:  Solving for T, Initial residual = 3.136722685e-05, Final residual = 4.904658583e-21, No Iterations 1
 C1 5.240585111 C2 1.189881858
DILUPBiCGStab:  Solving for p_rgh, Initial residual = 1.248535996e-05, Final residual = 6.242987167e-22, No Iterations 1
max/min kappa: 1/0
GAMGPCG:  Solving for pcorr, Initial residual = 0.9999999997, Final residual = 2.182129339e-10, No Iterations 1
PIMPLE: iteration 2
MULES: Solving for volumeFraction1
Phase-1 volume fraction = 0  Min(volumeFraction1) = 0  Max(volumeFraction1) = 0
 max: rho1 1033.041348 min: 1033.005168
 max: rho2 0.9989740407 min: 0.124871764
DILUPBiCGStab:  Solving for T, Initial residual = 1.476212061e-06, Final residual = 1.758011109e-22, No Iterations 1
 C1 5.239505053 C2 1.189636629
DILUPBiCGStab:  Solving for p_rgh, Initial residual = 3.009930104e-07, Final residual = 3.809959854e-23, No Iterations 1
max/min kappa: 1/0
GAMGPCG:  Solving for pcorr, Initial residual = 0.9999999996, Final residual = 2.666422125e-10, No Iterations 1
PIMPLE: iteration 3
MULES: Solving for volumeFraction1
Phase-1 volume fraction = 0  Min(volumeFraction1) = 0  Max(volumeFraction1) = 0
 max: rho1 1033.041348 min: 1033.005168
 max: rho2 0.9989740407 min: 0.124871764
DILUPBiCGStab:  Solving for T, Initial residual = 9.510140162e-07, Final residual = 3.211651618e-23, No Iterations 1
 C1 5.237502394 C2 1.189181923
DILUPBiCGStab:  Solving for p_rgh, Initial residual = 1.093156325e-07, Final residual = 4.972493255e-24, No Iterations 1
max/min kappa: 1/0
GAMGPCG:  Solving for pcorr, Initial residual = 0.9999999997, Final residual = 3.481009536e-10, No Iterations 1
ExecutionTime = 4.13 s  ClockTime = 5 s

Courant Number mean: 6.079065625e-05 max: 0.1007914624
deltaT = 1.361466467e-05
Time = 0.000163952

diagonal:  Solving for rho1, Initial residual = 0, Final residual = 0, No Iterations 0
diagonal:  Solving for rho2, Initial residual = 0, Final residual = 0, No Iterations 0
PIMPLE: iteration 1
MULES: Solving for volumeFraction1
Phase-1 volume fraction = 0  Min(volumeFraction1) = 0  Max(volumeFraction1) = 0
 max: rho1 1054.260026 min: 1004.935957
 max: rho2 0.9989740407 min: 0.124871764
DILUPBiCGStab:  Solving for T, Initial residual = 3.121070117e-05, Final residual = 1.064390651e-21, No Iterations 1
 C1 5.257479459 C2 1.193717742
DILUPBiCGStab:  Solving for p_rgh, Initial residual = 1.224469302e-05, Final residual = 4.267306995e-22, No Iterations 1
max/min kappa: 1/0
GAMGPCG:  Solving for pcorr, Initial residual = 0.9999999997, Final residual = 2.34685233e-20, No Iterations 2
PIMPLE: iteration 2
MULES: Solving for volumeFraction1
Phase-1 volume fraction = 0  Min(volumeFraction1) = 0  Max(volumeFraction1) = 0
 max: rho1 1033.041348 min: 1033.005168
 max: rho2 0.9989740407 min: 0.124871764
DILUPBiCGStab:  Solving for T, Initial residual = 1.750001876e-06, Final residual = 2.290059149e-22, No Iterations 1
 C1 5.25544276 C2 1.193255307
DILUPBiCGStab:  Solving for p_rgh, Initial residual = 3.443274868e-07, Final residual = 6.157459461e-23, No Iterations 1
max/min kappa: 1/0
GAMGPCG:  Solving for pcorr, Initial residual = 0.9999999996, Final residual = 8.841253714e-10, No Iterations 1
PIMPLE: iteration 3
MULES: Solving for volumeFraction1
Phase-1 volume fraction = 0  Min(volumeFraction1) = 0  Max(volumeFraction1) = 0
 max: rho1 1033.041348 min: 1033.005168
 max: rho2 0.9989740407 min: 0.124871764
DILUPBiCGStab:  Solving for T, Initial residual = 8.941354919e-07, Final residual = 1.299471982e-22, No Iterations 1
 C1 5.253444201 C2 1.192801531
DILUPBiCGStab:  Solving for p_rgh, Initial residual = 9.955798966e-08, Final residual = 7.676574322e-24, No Iterations 1
max/min kappa: 1/0
GAMGPCG:  Solving for pcorr, Initial residual = 0.9999999996, Final residual = 7.646586195e-10, No Iterations 1
ExecutionTime = 4.25 s  ClockTime = 5 s

Courant Number mean: 6.384449748e-05 max: 0.1014263294
deltaT = 1.342352711e-05
Time = 0.000177375

diagonal:  Solving for rho1, Initial residual = 0, Final residual = 0, No Iterations 0
diagonal:  Solving for rho2, Initial residual = 0, Final residual = 0, No Iterations 0
PIMPLE: iteration 1
MULES: Solving for volumeFraction1
Phase-1 volume fraction = 0  Min(volumeFraction1) = 0  Max(volumeFraction1) = 0
 max: rho1 1056.635798 min: 1004.848693
 max: rho2 0.9989740407 min: 0.124871764
DILUPBiCGStab:  Solving for T, Initial residual = 3.037405987e-05, Final residual = 2.389359782e-21, No Iterations 1
 C1 5.265852777 C2 1.195618915
DILUPBiCGStab:  Solving for p_rgh, Initial residual = 1.195196412e-05, Final residual = 3.213605331e-21, No Iterations 1
max/min kappa: 1/0
GAMGPCG:  Solving for pcorr, Initial residual = 0.9999999997, Final residual = 6.994921506e-10, No Iterations 1
PIMPLE: iteration 2
MULES: Solving for volumeFraction1
Phase-1 volume fraction = 0  Min(volumeFraction1) = 0  Max(volumeFraction1) = 0
 max: rho1 1033.041348 min: 1033.005168
 max: rho2 0.9989740407 min: 0.124871764
DILUPBiCGStab:  Solving for T, Initial residual = 1.658700844e-06, Final residual = 1.490518913e-22, No Iterations 1
 C1 5.264033523 C2 1.195205851
DILUPBiCGStab:  Solving for p_rgh, Initial residual = 3.399571845e-07, Final residual = 4.584693808e-23, No Iterations 1
max/min kappa: 1/0
GAMGPCG:  Solving for pcorr, Initial residual = 0.9999999996, Final residual = 3.989873268e-10, No Iterations 1
PIMPLE: iteration 3
MULES: Solving for volumeFraction1
Phase-1 volume fraction = 0  Min(volumeFraction1) = 0  Max(volumeFraction1) = 0
 max: rho1 1033.041348 min: 1033.005168
 max: rho2 0.9989740407 min: 0.124871764
DILUPBiCGStab:  Solving for T, Initial residual = 8.814926233e-07, Final residual = 2.962680708e-22, No Iterations 1
 C1 5.262302496 C2 1.194812819
DILUPBiCGStab:  Solving for p_rgh, Initial residual = 1.011200192e-07, Final residual = 1.814350405e-23, No Iterations 1
max/min kappa: 1/0
GAMGPCG:  Solving for pcorr, Initial residual = 0.9999999997, Final residual = 8.101760212e-10, No Iterations 1
ExecutionTime = 4.38 s  ClockTime = 5 s

Courant Number mean: 6.620684588e-05 max: 0.1011906141
deltaT = 1.326579197e-05
Time = 0.000190641

diagonal:  Solving for rho1, Initial residual = 0, Final residual = 0, No Iterations 0
diagonal:  Solving for rho2, Initial residual = 0, Final residual = 0, No Iterations 0
PIMPLE: iteration 1
MULES: Solving for volumeFraction1
Phase-1 volume fraction = 0  Min(volumeFraction1) = 0  Max(volumeFraction1) = 0
 max: rho1 1058.695493 min: 1004.829106
 max: rho2 0.9989740407 min: 0.124871764
DILUPBiCGStab:  Solving for T, Initial residual = 2.956485564e-05, Final residual = 5.225899522e-21, No Iterations 1
 C1 5.268526354 C2 1.196225954
DILUPBiCGStab:  Solving for p_rgh, Initial residual = 1.172653532e-05, Final residual = 2.501237186e-21, No Iterations 1
max/min kappa: 1/0
GAMGPCG:  Solving for pcorr, Initial residual = 0.9999999997, Final residual = 3.722702617e-10, No Iterations 1
PIMPLE: iteration 2
MULES: Solving for volumeFraction1
Phase-1 volume fraction = 0  Min(volumeFraction1) = 0  Max(volumeFraction1) = 0
 max: rho1 1033.041348 min: 1033.005168
 max: rho2 0.9989740407 min: 0.124871764
DILUPBiCGStab:  Solving for T, Initial residual = 1.505607956e-06, Final residual = 2.772952314e-22, No Iterations 1
 C1 5.26725561 C2 1.19593743
DILUPBiCGStab:  Solving for p_rgh, Initial residual = 4.553741829e-07, Final residual = 5.44854187e-23, No Iterations 1
max/min kappa: 1/0
GAMGPCG:  Solving for pcorr, Initial residual = 0.9999999996, Final residual = 8.70941957e-10, No Iterations 1
PIMPLE: iteration 3
MULES: Solving for volumeFraction1
Phase-1 volume fraction = 0  Min(volumeFraction1) = 0  Max(volumeFraction1) = 0
 max: rho1 1033.041348 min: 1033.005168
 max: rho2 0.9989740407 min: 0.124871764
DILUPBiCGStab:  Solving for T, Initial residual = 1.23921385e-06, Final residual = 8.846305226e-23, No Iterations 1
 C1 5.264803031 C2 1.195380569
DILUPBiCGStab:  Solving for p_rgh, Initial residual = 1.034858522e-07, Final residual = 1.069253419e-23, No Iterations 1
max/min kappa: 1/0
GAMGPCG:  Solving for pcorr, Initial residual = 0.9999999996, Final residual = 2.051817531e-10, No Iterations 1
ExecutionTime = 4.52 s  ClockTime = 5 s

Courant Number mean: 6.93121047e-05 max: 0.1011516905
deltaT = 1.311515318e-05
Time = 0.000203756

diagonal:  Solving for rho1, Initial residual = 0, Final residual = 0, No Iterations 0
diagonal:  Solving for rho2, Initial residual = 0, Final residual = 0, No Iterations 0
PIMPLE: iteration 1
MULES: Solving for volumeFraction1
Phase-1 volume fraction = 0  Min(volumeFraction1) = 0  Max(volumeFraction1) = 0
 max: rho1 1060.371407 min: 1004.908994
 max: rho2 0.9989740407 min: 0.124871764
DILUPBiCGStab:  Solving for T, Initial residual = 2.895329884e-05, Final residual = 1.205824241e-21, No Iterations 1
 C1 5.265517157 C2 1.195542712
DILUPBiCGStab:  Solving for p_rgh, Initial residual = 1.154338507e-05, Final residual = 4.515069374e-22, No Iterations 1
max/min kappa: 1/0
GAMGPCG:  Solving for pcorr, Initial residual = 0.9999999997, Final residual = 2.310805841e-20, No Iterations 2
PIMPLE: iteration 2
MULES: Solving for volumeFraction1
Phase-1 volume fraction = 0  Min(volumeFraction1) = 0  Max(volumeFraction1) = 0
 max: rho1 1033.041348 min: 1033.005168
 max: rho2 0.9989740407 min: 0.124871764
DILUPBiCGStab:  Solving for T, Initial residual = 1.462412149e-06, Final residual = 1.654115649e-22, No Iterations 1
 C1 5.264390603 C2 1.195286927
DILUPBiCGStab:  Solving for p_rgh, Initial residual = 5.057580837e-07, Final residual = 6.026871916e-23, No Iterations 1
max/min kappa: 1/0
GAMGPCG:  Solving for pcorr, Initial residual = 0.9999999996, Final residual = 2.923762559e-10, No Iterations 1
PIMPLE: iteration 3
MULES: Solving for volumeFraction1
Phase-1 volume fraction = 0  Min(volumeFraction1) = 0  Max(volumeFraction1) = 0
 max: rho1 1033.041348 min: 1033.005168
 max: rho2 0.9989740407 min: 0.124871764
DILUPBiCGStab:  Solving for T, Initial residual = 1.366246174e-06, Final residual = 1.607467236e-22, No Iterations 1
 C1 5.261597943 C2 1.19465285
DILUPBiCGStab:  Solving for p_rgh, Initial residual = 1.102089862e-07, Final residual = 2.992686921e-23, No Iterations 1
max/min kappa: 1/0
GAMGPCG:  Solving for pcorr, Initial residual = 0.9999999997, Final residual = 6.99551323e-10, No Iterations 1
ExecutionTime = 4.63 s  ClockTime = 5 s

Courant Number mean: 7.273863848e-05 max: 0.1025148695
deltaT = 1.279350986e-05
Time = 0.00021655

diagonal:  Solving for rho1, Initial residual = 0, Final residual = 0, No Iterations 0
diagonal:  Solving for rho2, Initial residual = 0, Final residual = 0, No Iterations 0
PIMPLE: iteration 1
MULES: Solving for volumeFraction1
Phase-1 volume fraction = 0  Min(volumeFraction1) = 0  Max(volumeFraction1) = 0
 max: rho1 1061.219499 min: 1005.434871
 max: rho2 0.9989740407 min: 0.124871764
DILUPBiCGStab:  Solving for T, Initial residual = 2.911814197e-05, Final residual = 2.527658233e-22, No Iterations 1
 C1 5.257340425 C2 1.193686174
DILUPBiCGStab:  Solving for p_rgh, Initial residual = 1.12222182e-05, Final residual = 2.501599244e-21, No Iterations 1
max/min kappa: 1/0
GAMGPCG:  Solving for pcorr, Initial residual = 0.9999999996, Final residual = 7.353035492e-10, No Iterations 1
PIMPLE: iteration 2
MULES: Solving for volumeFraction1
Phase-1 volume fraction = 0  Min(volumeFraction1) = 0  Max(volumeFraction1) = 0
 max: rho1 1033.041348 min: 1033.005168
 max: rho2 0.9989740407 min: 0.124871764
[...]
max/min kappa: 1/0
GAMGPCG:  Solving for pcorr, Initial residual = 0.9999999998, Final residual = 3.400321611e-11, No Iterations 1
PIMPLE: iteration 3
MULES: Solving for volumeFraction1
Phase-1 volume fraction = 0  Min(volumeFraction1) = 0  Max(volumeFraction1) = 0
 max: rho1 1033.041348 min: 1033.005168
 max: rho2 0.9989740407 min: 0.124871764
DILUPBiCGStab:  Solving for T, Initial residual = 1.823969611e-07, Final residual = 2.730524504e-23, No Iterations 1
 C1 5.573443411 C2 1.26545778
DILUPBiCGStab:  Solving for p_rgh, Initial residual = 2.020783186e-08, Final residual = 6.75647219e-24, No Iterations 1
max/min kappa: 1/0
GAMGPCG:  Solving for pcorr, Initial residual = 0.9999999998, Final residual = 1.773678755e-10, No Iterations 1
ExecutionTime = 85.8 s  ClockTime = 104 s

Courant Number mean: 0.002213143081 max: 0.1000109936
deltaT = 1.073985595e-05
Time = 0.00930312

diagonal:  Solving for rho1, Initial residual = 0, Final residual = 0, No Iterations 0
diagonal:  Solving for rho2, Initial residual = 0, Final residual = 0, No Iterations 0
PIMPLE: iteration 1
MULES: Solving for volumeFraction1
Phase-1 volume fraction = 0  Min(volumeFraction1) = 0  Max(volumeFraction1) = 0
 max: rho1 1052.073757 min: 1032.023571
 max: rho2 0.9989740407 min: 0.124871764
DILUPBiCGStab:  Solving for T, Initial residual = 3.671791433e-05, Final residual = 6.740770678e-21, No Iterations 1
 C1 5.573439597 C2 1.265456914
DILUPBiCGStab:  Solving for p_rgh, Initial residual = 9.821083764e-06, Final residual = 1.667996165e-21, No Iterations 1
max/min kappa: 1/0
GAMGPCG:  Solving for pcorr, Initial residual = 0.9999999998, Final residual = 2.170923151e-10, No Iterations 1
PIMPLE: iteration 2
MULES: Solving for volumeFraction1
Phase-1 volume fraction = 0  Min(volumeFraction1) = 0  Max(volumeFraction1) = 0
 max: rho1 1033.041348 min: 1033.005168
 max: rho2 0.9989740407 min: 0.124871764
DILUPBiCGStab:  Solving for T, Initial residual = 4.019282841e-07, Final residual = 4.467876391e-23, No Iterations 1
 C1 5.573439601 C2 1.265456915
DILUPBiCGStab:  Solving for p_rgh, Initial residual = 6.750613226e-08, Final residual = 5.027851288e-24, No Iterations 1
max/min kappa: 1/0
GAMGPCG:  Solving for pcorr, Initial residual = 0.9999999998, Final residual = 2.32897994e-10, No Iterations 1
PIMPLE: iteration 3
MULES: Solving for volumeFraction1
Phase-1 volume fraction = 0  Min(volumeFraction1) = 0  Max(volumeFraction1) = 0
 max: rho1 1033.041348 min: 1033.005168
 max: rho2 0.9989740407 min: 0.124871764
DILUPBiCGStab:  Solving for T, Initial residual = 1.658967892e-07, Final residual = 7.455690893e-24, No Iterations 1
 C1 5.5734396 C2 1.265456915
DILUPBiCGStab:  Solving for p_rgh, Initial residual = 1.901416633e-08, Final residual = 2.513392528e-24, No Iterations 1
max/min kappa: 1/0
GAMGPCG:  Solving for pcorr, Initial residual = 0.9999999998, Final residual = 7.116518057e-12, No Iterations 1
ExecutionTime = 85.93 s  ClockTime = 104 s

Courant Number mean: 0.00221533847 max: 0.1000104191
deltaT = 1.073864637e-05
Time = 0.00931386

diagonal:  Solving for rho1, Initial residual = 0, Final residual = 0, No Iterations 0
diagonal:  Solving for rho2, Initial residual = 0, Final residual = 0, No Iterations 0
PIMPLE: iteration 1
MULES: Solving for volumeFraction1
Phase-1 volume fraction = 0  Min(volumeFraction1) = 0  Max(volumeFraction1) = 0
 max: rho1 1052.762557 min: 1032.024852
 max: rho2 0.9989740407 min: 0.124871764
DILUPBiCGStab:  Solving for T, Initial residual = 3.668811056e-05, Final residual = 3.216618108e-21, No Iterations 1
 C1 5.573435371 C2 1.265455955
DILUPBiCGStab:  Solving for p_rgh, Initial residual = 9.815647472e-06, Final residual = 1.150635729e-21, No Iterations 1
max/min kappa: 1/0
GAMGPCG:  Solving for pcorr, Initial residual = 0.9999999998, Final residual = 1.547165547e-10, No Iterations 1
PIMPLE: iteration 2
MULES: Solving for volumeFraction1
Phase-1 volume fraction = 0  Min(volumeFraction1) = 0  Max(volumeFraction1) = 0
 max: rho1 1033.041348 min: 1033.005168
 max: rho2 0.9989740407 min: 0.124871764
DILUPBiCGStab:  Solving for T, Initial residual = 4.359186535e-07, Final residual = 1.78490414e-23, No Iterations 1
 C1 5.573435375 C2 1.265455955
DILUPBiCGStab:  Solving for p_rgh, Initial residual = 6.562412159e-08, Final residual = 1.018560338e-23, No Iterations 1
max/min kappa: 1/0
GAMGPCG:  Solving for pcorr, Initial residual = 0.9999999998, Final residual = 1.103283856e-10, No Iterations 1
PIMPLE: iteration 3
MULES: Solving for volumeFraction1
Phase-1 volume fraction = 0  Min(volumeFraction1) = 0  Max(volumeFraction1) = 0
 max: rho1 1033.041348 min: 1033.005168
 max: rho2 0.9989740407 min: 0.124871764
DILUPBiCGStab:  Solving for T, Initial residual = 1.743481814e-07, Final residual = 9.350396608e-24, No Iterations 1
 C1 5.573435374 C2 1.265455955
DILUPBiCGStab:  Solving for p_rgh, Initial residual = 2.068013883e-08, Final residual = 9.406686494e-25, No Iterations 1
max/min kappa: 1/0
GAMGPCG:  Solving for pcorr, Initial residual = 0.9999999998, Final residual = 2.384448164e-10, No Iterations 1
ExecutionTime = 86.03 s  ClockTime = 104 s

Courant Number mean: 0.002217504083 max: 0.1000185465
deltaT = 1.073683241e-05
Time = 0.00932459

diagonal:  Solving for rho1, Initial residual = 0, Final residual = 0, No Iterations 0
diagonal:  Solving for rho2, Initial residual = 0, Final residual = 0, No Iterations 0
PIMPLE: iteration 1
MULES: Solving for volumeFraction1
Phase-1 volume fraction = 0  Min(volumeFraction1) = 0  Max(volumeFraction1) = 0
 max: rho1 1053.316811 min: 1032.026188
 max: rho2 0.9989740407 min: 0.124871764
DILUPBiCGStab:  Solving for T, Initial residual = 3.664969897e-05, Final residual = 6.765316217e-21, No Iterations 1
 C1 5.573430706 C2 1.265454895
DILUPBiCGStab:  Solving for p_rgh, Initial residual = 9.807662733e-06, Final residual = 6.848843717e-22, No Iterations 1
max/min kappa: 1/0
GAMGPCG:  Solving for pcorr, Initial residual = 0.9999999998, Final residual = 1.655556943e-10, No Iterations 1
PIMPLE: iteration 2
MULES: Solving for volumeFraction1
Phase-1 volume fraction = 0  Min(volumeFraction1) = 0  Max(volumeFraction1) = 0
 max: rho1 1033.041348 min: 1033.005168
 max: rho2 0.9989740407 min: 0.124871764
DILUPBiCGStab:  Solving for T, Initial residual = 4.259649338e-07, Final residual = 6.799292374e-23, No Iterations 1
 C1 5.57343071 C2 1.265454896
DILUPBiCGStab:  Solving for p_rgh, Initial residual = 5.73235608e-08, Final residual = 3.855499638e-24, No Iterations 1
max/min kappa: 1/0
GAMGPCG:  Solving for pcorr, Initial residual = 0.9999999998, Final residual = 1.771015571e-10, No Iterations 1
PIMPLE: iteration 3
MULES: Solving for volumeFraction1
Phase-1 volume fraction = 0  Min(volumeFraction1) = 0  Max(volumeFraction1) = 0
 max: rho1 1033.041348 min: 1033.005168
 max: rho2 0.9989740407 min: 0.124871764
DILUPBiCGStab:  Solving for T, Initial residual = 1.444557573e-07, Final residual = 2.411364547e-23, No Iterations 1
 C1 5.573430709 C2 1.265454896
DILUPBiCGStab:  Solving for p_rgh, Initial residual = 1.717602146e-08, Final residual = 3.312139611e-24, No Iterations 1
max/min kappa: 1/0
GAMGPCG:  Solving for pcorr, Initial residual = 0.9999999998, Final residual = 2.3819119e-10, No Iterations 1
ExecutionTime = 86.15 s  ClockTime = 104 s

Courant Number mean: 0.002219524203 max: 0.1000156343
deltaT = 1.073501896e-05
Time = 0.00933533

diagonal:  Solving for rho1, Initial residual = 0, Final residual = 0, No Iterations 0
diagonal:  Solving for rho2, Initial residual = 0, Final residual = 0, No Iterations 0
PIMPLE: iteration 1
MULES: Solving for volumeFraction1
Phase-1 volume fraction = 0  Min(volumeFraction1) = 0  Max(volumeFraction1) = 0
 max: rho1 1053.348524 min: 1032.027521
 max: rho2 0.9989740407 min: 0.124871764
DILUPBiCGStab:  Solving for T, Initial residual = 3.663045808e-05, Final residual = 2.379141967e-21, No Iterations 1
 C1 5.573425577 C2 1.265453731
DILUPBiCGStab:  Solving for p_rgh, Initial residual = 9.803561748e-06, Final residual = 6.124122362e-22, No Iterations 1
max/min kappa: 1/0
GAMGPCG:  Solving for pcorr, Initial residual = 0.9999999998, Final residual = 2.181426645e-10, No Iterations 1
PIMPLE: iteration 2
MULES: Solving for volumeFraction1
Phase-1 volume fraction = 0  Min(volumeFraction1) = 0  Max(volumeFraction1) = 0
 max: rho1 1033.041348 min: 1033.005168
 max: rho2 0.9989740407 min: 0.124871764
DILUPBiCGStab:  Solving for T, Initial residual = 4.1299085e-07, Final residual = 1.074056464e-23, No Iterations 1
 C1 5.57342558 C2 1.265453732
DILUPBiCGStab:  Solving for p_rgh, Initial residual = 5.217733024e-08, Final residual = 2.995974829e-24, No Iterations 1
max/min kappa: 1/0
GAMGPCG:  Solving for pcorr, Initial residual = 0.9999999998, Final residual = 6.9994363e-11, No Iterations 1
PIMPLE: iteration 3
MULES: Solving for volumeFraction1
Phase-1 volume fraction = 0  Min(volumeFraction1) = 0  Max(volumeFraction1) = 0
 max: rho1 1033.041348 min: 1033.005168
 max: rho2 0.9989740407 min: 0.124871764
DILUPBiCGStab:  Solving for T, Initial residual = 1.425945684e-07, Final residual = 9.304993801e-24, No Iterations 1
 C1 5.573425579 C2 1.265453731
DILUPBiCGStab:  Solving for p_rgh, Initial residual = 1.690546849e-08, Final residual = 2.339231251e-25, No Iterations 1
max/min kappa: 1/0
GAMGPCG:  Solving for pcorr, Initial residual = 0.9999999998, Final residual = 1.487054312e-10, No Iterations 1
ExecutionTime = 86.27 s  ClockTime = 105 s

Courant Number mean: 0.00222152396 max: 0.09998880475
deltaT = 1.073622793e-05
Time = 0.00934606

diagonal:  Solving for rho1, Initial residual = 0, Final residual = 0, No Iterations 0
diagonal:  Solving for rho2, Initial residual = 0, Final residual = 0, No Iterations 0
PIMPLE: iteration 1
MULES: Solving for volumeFraction1
Phase-1 volume fraction = 0  Min(volumeFraction1) = 0  Max(volumeFraction1) = 0
 max: rho1 1052.730828 min: 1032.028572
 max: rho2 0.9989740407 min: 0.124871764
DILUPBiCGStab:  Solving for T, Initial residual = 3.661973749e-05, Final residual = 8.048762352e-21, No Iterations 1
 C1 5.573419956 C2 1.265452454
DILUPBiCGStab:  Solving for p_rgh, Initial residual = 9.803307595e-06, Final residual = 7.607026613e-22, No Iterations 1
max/min kappa: 1/0
GAMGPCG:  Solving for pcorr, Initial residual = 0.9999999998, Final residual = 1.704562008e-10, No Iterations 1
PIMPLE: iteration 2
MULES: Solving for volumeFraction1
Phase-1 volume fraction = 0  Min(volumeFraction1) = 0  Max(volumeFraction1) = 0
 max: rho1 1033.041348 min: 1033.005168
 max: rho2 0.9989740407 min: 0.124871764
DILUPBiCGStab:  Solving for T, Initial residual = 4.053429071e-07, Final residual = 2.384539973e-23, No Iterations 1
 C1 5.573419959 C2 1.265452455
DILUPBiCGStab:  Solving for p_rgh, Initial residual = 5.120863599e-08, Final residual = 3.903772051e-24, No Iterations 1
max/min kappa: 1/0
GAMGPCG:  Solving for pcorr, Initial residual = 0.9999999998, Final residual = 4.472615116e-10, No Iterations 1
PIMPLE: iteration 3
MULES: Solving for volumeFraction1
Phase-1 volume fraction = 0  Min(volumeFraction1) = 0  Max(volumeFraction1) = 0
 max: rho1 1033.041348 min: 1033.005168
 max: rho2 0.9989740407 min: 0.124871764
DILUPBiCGStab:  Solving for T, Initial residual = 1.376483419e-07, Final residual = 1.206019497e-23, No Iterations 1
 C1 5.573419958 C2 1.265452455
DILUPBiCGStab:  Solving for p_rgh, Initial residual = 1.574859619e-08, Final residual = 2.823717396e-24, No Iterations 1
max/min kappa: 1/0
GAMGPCG:  Solving for pcorr, Initial residual = 0.9999999998, Final residual = 3.312493508e-10, No Iterations 1
ExecutionTime = 86.4 s  ClockTime = 105 s

Courant Number mean: 0.002224142655 max: 0.09999034153
deltaT = 1.073743724e-05
Time = 0.0093568

diagonal:  Solving for rho1, Initial residual = 0, Final residual = 0, No Iterations 0
diagonal:  Solving for rho2, Initial residual = 0, Final residual = 0, No Iterations 0
PIMPLE: iteration 1
MULES: Solving for volumeFraction1
Phase-1 volume fraction = 0  Min(volumeFraction1) = 0  Max(volumeFraction1) = 0
 max: rho1 1051.968122 min: 1032.029621
 max: rho2 0.9989740407 min: 0.124871764
DILUPBiCGStab:  Solving for T, Initial residual = 3.66070359e-05, Final residual = 8.220154026e-21, No Iterations 1
 C1 5.573413815 C2 1.26545106
DILUPBiCGStab:  Solving for p_rgh, Initial residual = 9.801781042e-06, Final residual = 3.966180013e-21, No Iterations 1
max/min kappa: 1/0
GAMGPCG:  Solving for pcorr, Initial residual = 0.9999999998, Final residual = 6.989579077e-11, No Iterations 1
PIMPLE: iteration 2
MULES: Solving for volumeFraction1
Phase-1 volume fraction = 0  Min(volumeFraction1) = 0  Max(volumeFraction1) = 0
 max: rho1 1033.041348 min: 1033.005168
 max: rho2 0.9989740407 min: 0.124871764
DILUPBiCGStab:  Solving for T, Initial residual = 4.402736657e-07, Final residual = 6.298711524e-23, No Iterations 1
 C1 5.573413824 C2 1.265451062
DILUPBiCGStab:  Solving for p_rgh, Initial residual = 8.203096914e-08, Final residual = 6.585087842e-24, No Iterations 1
max/min kappa: 1/0
GAMGPCG:  Solving for pcorr, Initial residual = 0.9999999998, Final residual = 3.765634011e-10, No Iterations 1
PIMPLE: iteration 3
MULES: Solving for volumeFraction1
Phase-1 volume fraction = 0  Min(volumeFraction1) = 0  Max(volumeFraction1) = 0
 max: rho1 1033.041348 min: 1033.005168
 max: rho2 0.9989740407 min: 0.124871764
DILUPBiCGStab:  Solving for T, Initial residual = 2.187384719e-07, Final residual = 1.235932575e-23, No Iterations 1
 C1 5.573413824 C2 1.265451062
DILUPBiCGStab:  Solving for p_rgh, Initial residual = 2.541471652e-08, Final residual = 4.853349193e-24, No Iterations 1
max/min kappa: 1/0
GAMGPCG:  Solving for pcorr, Initial residual = 0.9999999998, Final residual = 2.538896347e-11, No Iterations 1
ExecutionTime = 86.51 s  ClockTime = 105 s

Courant Number mean: 0.002227075709 max: 0.09999922725
deltaT = 1.073743724e-05
Time = 0.00936754

diagonal:  Solving for rho1, Initial residual = 0, Final residual = 0, No Iterations 0
diagonal:  Solving for rho2, Initial residual = 0, Final residual = 0, No Iterations 0
PIMPLE: iteration 1
MULES: Solving for volumeFraction1
Phase-1 volume fraction = 0  Min(volumeFraction1) = 0  Max(volumeFraction1) = 0
 max: rho1 1051.078222 min: 1032.03078
 max: rho2 0.9989740407 min: 0.124871764
DILUPBiCGStab:  Solving for T, Initial residual = 3.663362419e-05, Final residual = 3.479977782e-21, No Iterations 1
 C1 5.573411257 C2 1.265450479
DILUPBiCGStab:  Solving for p_rgh, Initial residual = 9.804375716e-06, Final residual = 7.633949451e-22, No Iterations 1
max/min kappa: 1/0
GAMGPCG:  Solving for pcorr, Initial residual = 0.9999999998, Final residual = 5.470838259e-11, No Iterations 1
PIMPLE: iteration 2
MULES: Solving for volumeFraction1
Phase-1 volume fraction = 0  Min(volumeFraction1) = 0  Max(volumeFraction1) = 0
 max: rho1 1033.041348 min: 1033.005168
 max: rho2 0.9989740407 min: 0.124871764
DILUPBiCGStab:  Solving for T, Initial residual = 4.400436707e-07, Final residual = 1.908343133e-23, No Iterations 1
 C1 5.57341129 C2 1.265450487
DILUPBiCGStab:  Solving for p_rgh, Initial residual = 1.059046312e-07, Final residual = 3.872327519e-24, No Iterations 1
max/min kappa: 1/0
GAMGPCG:  Solving for pcorr, Initial residual = 0.9999999998, Final residual = 3.965476849e-11, No Iterations 1
PIMPLE: iteration 3
MULES: Solving for volumeFraction1
Phase-1 volume fraction = 0  Min(volumeFraction1) = 0  Max(volumeFraction1) = 0
 max: rho1 1033.041348 min: 1033.005168
 max: rho2 0.9989740407 min: 0.124871764
DILUPBiCGStab:  Solving for T, Initial residual = 2.864013242e-07, Final residual = 9.2277672e-23, No Iterations 1
 C1 5.573411299 C2 1.265450489
DILUPBiCGStab:  Solving for p_rgh, Initial residual = 3.164466367e-08, Final residual = 3.81316129e-24, No Iterations 1
max/min kappa: 1/0
GAMGPCG:  Solving for pcorr, Initial residual = 0.9999999998, Final residual = 3.929795445e-11, No Iterations 1
ExecutionTime = 86.6 s  ClockTime = 105 s

Courant Number mean: 0.00222984066 max: 0.09999869638
deltaT = 1.073743724e-05
Time = 0.00937828

diagonal:  Solving for rho1, Initial residual = 0, Final residual = 0, No Iterations 0
diagonal:  Solving for rho2, Initial residual = 0, Final residual = 0, No Iterations 0
PIMPLE: iteration 1
MULES: Solving for volumeFraction1
Phase-1 volume fraction = 0  Min(volumeFraction1) = 0  Max(volumeFraction1) = 0
 max: rho1 1050.090098 min: 1032.031937
 max: rho2 0.9989740407 min: 0.124871764
DILUPBiCGStab:  Solving for T, Initial residual = 3.66682323e-05, Final residual = 5.32381856e-21, No Iterations 1
 C1 5.573410551 C2 1.265450319
DILUPBiCGStab:  Solving for p_rgh, Initial residual = 9.808222513e-06, Final residual = 2.133351678e-21, No Iterations 1
max/min kappa: 1/0
GAMGPCG:  Solving for pcorr, Initial residual = 0.9999999998, Final residual = 1.565133323e-10, No Iterations 1
PIMPLE: iteration 2
MULES: Solving for volumeFraction1
Phase-1 volume fraction = 0  Min(volumeFraction1) = 0  Max(volumeFraction1) = 0
 max: rho1 1033.041348 min: 1033.005168
 max: rho2 0.9989740407 min: 0.124871764
DILUPBiCGStab:  Solving for T, Initial residual = 4.42845079e-07, Final residual = 5.212694369e-23, No Iterations 1
 C1 5.573410556 C2 1.26545032
DILUPBiCGStab:  Solving for p_rgh, Initial residual = 1.064165303e-07, Final residual = 1.067509262e-23, No Iterations 1
max/min kappa: 1/0
GAMGPCG:  Solving for pcorr, Initial residual = 0.9999999998, Final residual = 1.137017684e-10, No Iterations 1
PIMPLE: iteration 3
MULES: Solving for volumeFraction1
Phase-1 volume fraction = 0  Min(volumeFraction1) = 0  Max(volumeFraction1) = 0
 max: rho1 1033.041348 min: 1033.005168
 max: rho2 0.9989740407 min: 0.124871764
DILUPBiCGStab:  Solving for T, Initial residual = 2.767873156e-07, Final residual = 6.43227517e-23, No Iterations 1
 C1 5.573410554 C2 1.26545032
DILUPBiCGStab:  Solving for p_rgh, Initial residual = 3.01621133e-08, Final residual = 3.661229344e-24, No Iterations 1
max/min kappa: 1/0
GAMGPCG:  Solving for pcorr, Initial residual = 0.9999999998, Final residual = 2.638962624e-10, No Iterations 1
ExecutionTime = 86.69 s  ClockTime = 105 s

Courant Number mean: 0.002232622356 max: 0.09999764328
deltaT = 1.073743724e-05
Time = 0.00938901

diagonal:  Solving for rho1, Initial residual = 0, Final residual = 0, No Iterations 0
diagonal:  Solving for rho2, Initial residual = 0, Final residual = 0, No Iterations 0
PIMPLE: iteration 1
MULES: Solving for volumeFraction1
Phase-1 volume fraction = 0  Min(volumeFraction1) = 0  Max(volumeFraction1) = 0
 max: rho1 1049.68132 min: 1032.033092
 max: rho2 0.9989740407 min: 0.124871764
DILUPBiCGStab:  Solving for T, Initial residual = 3.670113092e-05, Final residual = 8.843370725e-21, No Iterations 1
 C1 5.573409626 C2 1.265450109
DILUPBiCGStab:  Solving for p_rgh, Initial residual = 9.812161622e-06, Final residual = 2.246226995e-21, No Iterations 1
max/min kappa: 1/0
GAMGPCG:  Solving for pcorr, Initial residual = 0.9999999998, Final residual = 1.352249189e-10, No Iterations 1
PIMPLE: iteration 2
MULES: Solving for volumeFraction1
Phase-1 volume fraction = 0  Min(volumeFraction1) = 0  Max(volumeFraction1) = 0
 max: rho1 1033.041348 min: 1033.005168
 max: rho2 0.9989740407 min: 0.124871764
DILUPBiCGStab:  Solving for T, Initial residual = 4.416658913e-07, Final residual = 9.149882393e-23, No Iterations 1
 C1 5.57340963 C2 1.26545011
DILUPBiCGStab:  Solving for p_rgh, Initial residual = 9.560514911e-08, Final residual = 1.442350216e-23, No Iterations 1
max/min kappa: 1/0
GAMGPCG:  Solving for pcorr, Initial residual = 0.9999999998, Final residual = 5.37375903e-11, No Iterations 1
PIMPLE: iteration 3
MULES: Solving for volumeFraction1
Phase-1 volume fraction = 0  Min(volumeFraction1) = 0  Max(volumeFraction1) = 0
 max: rho1 1033.041348 min: 1033.005168
 max: rho2 0.9989740407 min: 0.124871764
DILUPBiCGStab:  Solving for T, Initial residual = 2.445325578e-07, Final residual = 2.32020392e-23, No Iterations 1
 C1 5.573409629 C2 1.26545011
